
 OpenBabel11152012363D

 52 60  0  0  1  0  0  0  0  0999 V2000
    7.3615    4.5193   -4.7167 O   0  0  0  0  0  0  0  0  0  0  0  0
    7.0658    3.2930   -5.2538 C   0  0  0  0  0  0  0  0  0  0  0  0
    5.9367    2.6312   -4.9713 C   0  0  0  0  0  0  0  0  0  0  0  0
    5.0212    3.1508   -4.0719 O   0  0  0  0  0  0  0  0  0  0  0  0
    3.6525    2.8281   -4.3162 C   0  0  2  0  0  0  0  0  0  0  0  0
    2.7920    3.4605   -3.3503 O   0  0  0  0  0  0  0  0  0  0  0  0
    2.7115    4.8519   -3.4318 C   0  0  0  0  0  0  0  0  0  0  0  0
    2.4527    5.6249   -2.3502 C   0  0  0  0  0  0  0  0  0  0  0  0
    2.3995    7.0262   -2.4155 O   0  0  0  0  0  0  0  0  0  0  0  0
    2.4849    7.6606   -3.6560 C   0  0  0  0  0  0  0  0  0  0  0  0
    2.6555    6.9575   -4.7844 C   0  0  0  0  0  0  0  0  0  0  0  0
    2.8328    5.4861   -4.7981 C   0  0  0  0  0  0  0  0  0  0  0  0
    2.6508    7.6756   -6.0891 C   0  0  0  0  0  0  0  0  0  0  0  0
    2.7404    7.0212   -7.2007 N   0  0  0  0  0  0  0  0  0  0  0  0
    2.7029    7.7136   -8.3955 C   0  0  0  0  0  0  0  0  0  0  0  0
    2.7372    7.0680   -9.4351 O   0  0  0  0  0  0  0  0  0  0  0  0
    2.6262    9.0894   -8.4749 N   0  0  0  0  0  0  0  0  0  0  0  0
    2.5434    9.7665   -7.3817 C   0  0  0  0  0  0  0  0  0  0  0  0
    2.5262    9.1466   -6.0547 C   0  0  0  0  0  0  0  0  0  0  0  0
    2.4039    9.7792   -4.8695 C   0  0  0  0  0  0  0  0  0  0  0  0
    2.3624    9.0314   -3.6939 N   0  0  0  0  0  0  0  0  0  0  0  0
    2.2864   11.2484   -4.7175 C   0  0  0  0  0  0  0  0  0  0  0  0
    3.2428   12.0044   -3.9564 O   0  0  0  0  0  0  0  0  0  0  0  0
    3.1713   12.1664   -5.3838 O   0  0  0  0  0  0  0  0  0  0  0  0
    2.2270    5.0772   -0.9920 C   0  0  0  0  0  0  0  0  0  0  0  0
    3.3575    4.9258   -0.2704 N   0  0  0  0  0  0  0  0  0  0  0  0
    3.2858    4.4396    0.9355 N   0  0  0  0  0  0  0  0  0  0  0  0
    2.1452    4.0956    1.4839 N   0  0  0  0  0  0  0  0  0  0  0  0
    0.9891    4.2359    0.8205 C   0  0  0  0  0  0  0  0  0  0  0  0
    0.9626    4.7455   -0.4782 C   0  0  0  0  0  0  0  0  0  0  0  0
   -0.2919    4.8696   -1.1386 C   0  0  0  0  0  0  0  0  0  0  0  0
   -1.4813    4.4799   -0.5014 C   0  0  0  0  0  0  0  0  0  0  0  0
   -2.7604    4.5177   -1.2180 C   0  0  0  0  0  0  0  0  0  0  0  0
   -2.8842    5.0621   -2.3017 O   0  0  0  0  0  0  0  0  0  0  0  0
   -3.9082    3.8096   -0.5394 C   0  0  0  0  0  0  0  0  0  0  0  0
   -4.7442    3.1943   -1.1840 O   0  0  0  0  0  0  0  0  0  0  0  0
   -3.8671    3.9002    0.9679 C   0  0  1  0  0  0  0  0  0  0  0  0
   -2.5690    3.6352    1.5202 O   0  0  0  0  0  0  0  0  0  0  0  0
   -1.4598    4.0033    0.8004 C   0  0  0  0  0  0  0  0  0  0  0  0
   -0.2172    3.8369    1.4439 C   0  0  0  0  0  0  0  0  0  0  0  0
   -0.2115    3.4524    2.8170 N   0  0  0  0  0  0  0  0  0  0  0  0
   -4.4330    5.1715    1.5373 C   0  0  1  0  0  0  0  0  0  0  0  0
   -4.4288    5.2940    2.9768 O   0  0  0  0  0  0  0  0  0  0  0  0
   -4.1482    6.3808    0.8439 O   0  0  0  0  0  0  0  0  0  0  0  0
   -5.4246    5.9723    0.8256 C   0  0  0  0  0  0  0  0  0  0  0  0
   -6.1607    5.7307   -0.1197 O   0  0  0  0  0  0  0  0  0  0  0  0
    3.4802    1.3202   -4.3363 C   0  0  0  0  0  0  0  0  0  0  0  0
    2.7111    0.6493   -3.6682 O   0  0  0  0  0  0  0  0  0  0  0  0
    4.3704    0.6958   -5.3778 C   0  0  0  0  0  0  0  0  0  0  0  0
    3.9528   -0.2130   -6.0777 O   0  0  0  0  0  0  0  0  0  0  0  0
    5.7336    1.3053   -5.6250 C   0  0  0  0  0  0  0  0  0  0  0  0
    6.5685    0.7478   -6.3190 O   0  0  0  0  0  0  0  0  0  0  0  0
  1  2  1  0  0  0  0
  2  3  2  0  0  0  0
  3  4  1  0  0  0  0
  3 51  1  0  0  0  0
  4  5  1  0  0  0  0
  5  6  1  1  0  0  0
  5 47  1  0  0  0  0
  6  7  1  0  0  0  0
  7  8  2  0  0  0  0
  7 12  1  0  0  0  0
  8  9  1  0  0  0  0
  8 25  1  0  0  0  0
  9 10  1  0  0  0  0
 10 11  2  0  0  0  0
 10 21  1  0  0  0  0
 11 12  1  0  0  0  0
 11 13  1  0  0  0  0
 13 14  2  0  0  0  0
 13 19  1  0  0  0  0
 14 15  1  0  0  0  0
 15 16  2  0  0  0  0
 15 17  1  0  0  0  0
 17 18  2  0  0  0  0
 18 19  1  0  0  0  0
 19 20  2  0  0  0  0
 20 21  1  0  0  0  0
 20 22  1  0  0  0  0
 22 23  1  0  0  0  0
 22 24  1  0  0  0  0
 23 24  1  0  0  0  0
 25 26  2  0  0  0  0
 25 30  1  0  0  0  0
 26 27  1  0  0  0  0
 27 28  2  0  0  0  0
 28 29  1  0  0  0  0
 29 30  2  0  0  0  0
 29 40  1  0  0  0  0
 30 31  1  0  0  0  0
 31 32  2  0  0  0  0
 32 33  1  0  0  0  0
 32 39  1  0  0  0  0
 33 34  2  0  0  0  0
 33 35  1  0  0  0  0
 35 36  2  0  0  0  0
 37 35  1  6  0  0  0
 37 38  1  0  0  0  0
 37 42  1  0  0  0  0
 38 39  1  0  0  0  0
 39 40  2  0  0  0  0
 40 41  1  0  0  0  0
 42 43  1  1  0  0  0
 42 44  1  0  0  0  0
 42 45  1  0  0  0  0
 44 45  1  0  0  0  0
 45 46  2  0  0  0  0
 47 48  2  0  0  0  0
 47 49  1  0  0  0  0
 49 50  2  0  0  0  0
 49 51  1  0  0  0  0
 51 52  2  0  0  0  0
M  END
$$$$