
 OpenBabel11222022353D

 54 63  0  0  1  0  0  0  0  0999 V2000
    2.9641    0.0504  -21.2194 O   0  0  0  0  0  0  0  0  0  0  0  0
    2.4658   -1.1880  -20.8935 C   0  0  0  0  0  0  0  0  0  0  0  0
    2.4459   -1.6446  -19.6363 C   0  0  0  0  0  0  0  0  0  0  0  0
    2.9540   -0.8751  -18.5981 O   0  0  0  0  0  0  0  0  0  0  0  0
    2.1988   -1.0148  -17.3996 C   0  0  2  0  0  0  0  0  0  0  0  0
    2.6250   -0.0849  -16.3785 O   0  0  0  0  0  0  0  0  0  0  0  0
    2.2759    1.2469  -16.5426 C   0  0  0  0  0  0  0  0  0  0  0  0
    2.0912    2.0457  -15.4709 C   0  0  0  0  0  0  0  0  0  0  0  0
    1.7550    3.3984  -15.5796 O   0  0  0  0  0  0  0  0  0  0  0  0
    1.6831    3.9927  -16.8457 C   0  0  0  0  0  0  0  0  0  0  0  0
    1.9097    3.2809  -17.9665 C   0  0  0  0  0  0  0  0  0  0  0  0
    2.2073    1.8105  -17.9399 C   0  0  0  0  0  0  0  0  0  0  0  0
    1.9110    3.9234  -19.3291 C   0  0  3  0  0  0  0  0  0  0  0  0
    1.0412    3.2052  -20.1855 O   0  0  0  0  0  0  0  0  0  0  0  0
    1.1245    3.6005  -21.4898 C   0  0  0  0  0  0  0  0  0  0  0  0
    0.8925    2.8464  -22.4166 O   0  0  0  0  0  0  0  0  0  0  0  0
    1.5381    4.8865  -21.6485 O   0  0  0  0  0  0  0  0  0  0  0  0
    1.1070    5.8139  -20.6629 C   0  0  3  0  0  0  0  0  0  0  0  0
    1.3826    5.3085  -19.2837 C   0  0  0  0  0  0  0  0  0  0  0  0
    1.1411    5.9592  -18.1234 C   0  0  0  0  0  0  0  0  0  0  0  0
    1.3834    5.3377  -16.9062 O   0  3  0  0  0  0  0  0  0  0  0  0
    0.5515    7.3167  -18.0386 C   0  0  0  0  0  0  0  0  0  0  0  0
   -0.8660    7.4834  -17.9036 O   0  0  0  0  0  0  0  0  0  0  0  0
   -0.0006    7.7828  -16.7924 O   0  0  0  0  0  0  0  0  0  0  0  0
    1.8629    7.0008  -20.7938 O   0  0  0  0  0  0  0  0  0  0  0  0
    2.2888    1.5572  -14.0836 C   0  0  0  0  0  0  0  0  0  0  0  0
    3.5393    1.7138  -13.6176 N   0  0  0  0  0  0  0  0  0  0  0  0
    3.8115    1.2668  -12.4029 N   0  3  0  0  0  0  0  0  0  0  0  0
    5.0670    1.4116  -11.9341 F   0  0  0  0  0  0  0  0  0  0  0  0
    2.9108    0.7256  -11.6097 N   0  0  0  0  0  0  0  0  0  0  0  0
    1.6599    0.5752  -12.0412 C   0  0  0  0  0  0  0  0  0  0  0  0
    1.2743    0.9802  -13.3188 C   0  0  0  0  0  0  0  0  0  0  0  0
   -0.0684    0.7955  -13.7318 C   0  0  0  0  0  0  0  0  0  0  0  0
   -1.0130    0.2282  -12.8649 C   0  0  0  0  0  0  0  0  0  0  0  0
   -0.6420   -0.1537  -11.5893 C   0  0  0  0  0  0  0  0  0  0  0  0
    0.6901    0.0132  -11.2019 C   0  0  0  0  0  0  0  0  0  0  0  0
    1.0533   -0.3521   -9.9629 F   0  0  0  0  0  0  0  0  0  0  0  0
   -1.5202   -0.7105  -10.6980 O   0  0  0  0  0  0  0  0  0  0  0  0
   -2.9132   -0.3669  -10.9212 C   0  0  1  0  0  0  0  0  0  0  0  0
   -3.4061   -0.4832  -12.3044 C   0  0  0  0  0  0  0  0  0  0  0  0
   -4.5198   -0.8503  -12.6274 O   0  0  0  0  0  0  0  0  0  0  0  0
   -2.4027    0.0545  -13.3052 C   0  0  0  0  0  0  0  0  0  0  0  0
   -2.7189    0.3948  -14.4345 O   0  0  0  0  0  0  0  0  0  0  0  0
   -3.8048   -0.7290   -9.8988 O   0  0  0  0  0  0  0  0  0  0  0  0
   -3.5559    0.6970  -10.0728 C   0  0  1  0  0  0  0  0  0  0  0  0
   -2.4622    1.3236   -9.3148 O   0  0  0  0  0  0  0  0  0  0  0  0
   -3.6556    1.2858   -8.7594 C   0  0  0  0  0  0  0  0  0  0  0  0
   -4.3379    2.1873   -8.3133 O   0  0  0  0  0  0  0  0  0  0  0  0
    2.3985   -2.4221  -16.8707 C   0  0  0  0  0  0  0  0  0  0  0  0
    2.6922   -2.7006  -15.7195 O   0  0  0  0  0  0  0  0  0  0  0  0
    2.1232   -3.4677  -17.9337 C   0  0  0  0  0  0  0  0  0  0  0  0
    2.0815   -4.6472  -17.6392 O   0  0  0  0  0  0  0  0  0  0  0  0
    1.8645   -2.9918  -19.3565 C   0  0  0  0  0  0  0  0  0  0  0  0
    1.1660   -3.6136  -20.1338 O   0  0  0  0  0  0  0  0  0  0  0  0
  1  2  1  0  0  0  0
  2  3  2  0  0  0  0
  3  4  1  0  0  0  0
  3 53  1  0  0  0  0
  4  5  1  0  0  0  0
  5  6  1  1  0  0  0
  5 49  1  0  0  0  0
  6  7  1  0  0  0  0
  7  8  2  0  0  0  0
  7 12  1  0  0  0  0
  8  9  1  0  0  0  0
  8 26  1  0  0  0  0
  9 10  1  0  0  0  0
 10 11  2  0  0  0  0
 10 21  1  0  0  0  0
 11 12  1  0  0  0  0
 11 13  1  0  0  0  0
 13 14  1  0  0  0  0
 13 19  1  0  0  0  0
 14 15  1  0  0  0  0
 15 16  2  0  0  0  0
 15 17  1  0  0  0  0
 17 18  1  0  0  0  0
 18 19  1  0  0  0  0
 18 25  1  0  0  0  0
 19 20  2  0  0  0  0
 20 21  1  0  0  0  0
 20 22  1  0  0  0  0
 22 23  1  0  0  0  0
 22 24  1  0  0  0  0
 23 24  1  0  0  0  0
 26 27  2  0  0  0  0
 26 32  1  0  0  0  0
 27 28  1  0  0  0  0
 28 29  1  0  0  0  0
 28 30  2  0  0  0  0
 30 31  1  0  0  0  0
 31 32  2  0  0  0  0
 31 36  1  0  0  0  0
 32 33  1  0  0  0  0
 33 34  2  0  0  0  0
 34 35  1  0  0  0  0
 34 42  1  0  0  0  0
 35 36  2  0  0  0  0
 35 38  1  0  0  0  0
 36 37  1  0  0  0  0
 39 38  1  1  0  0  0
 39 40  1  0  0  0  0
 39 44  1  0  0  0  0
 39 45  1  0  0  0  0
 40 41  2  0  0  0  0
 40 42  1  0  0  0  0
 42 43  2  0  0  0  0
 45 44  1  1  0  0  0
 45 46  1  0  0  0  0
 45 47  1  0  0  0  0
 46 47  1  0  0  0  0
 47 48  2  0  0  0  0
 49 50  2  0  0  0  0
 49 51  1  0  0  0  0
 51 52  2  0  0  0  0
 51 53  1  0  0  0  0
 53 54  2  0  0  0  0
M  CHG  2  21   1  28   1
M  END
$$$$