
 OpenBabel11222001563D

 54 62  0  0  1  0  0  0  0  0999 V2000
    2.4922   -3.8488   -3.5915 O   0  0  0  0  0  0  0  0  0  0  0  0
    2.8546   -2.6226   -3.0856 C   0  0  0  0  0  0  0  0  0  0  0  0
    2.7797   -2.3301   -1.7822 C   0  0  0  0  0  0  0  0  0  0  0  0
    2.2582   -3.2540   -0.9006 O   0  0  0  0  0  0  0  0  0  0  0  0
    2.8688   -3.2671    0.3772 C   0  0  2  0  0  0  0  0  0  0  0  0
    2.3126   -4.3180    1.1882 O   0  0  0  0  0  0  0  0  0  0  0  0
    2.4531   -5.6401    0.7821 C   0  0  0  0  0  0  0  0  0  0  0  0
    1.9464   -6.6528    1.5265 C   0  0  0  0  0  0  0  0  0  0  0  0
    2.0628   -7.9965    1.1274 O   0  0  0  0  0  0  0  0  0  0  0  0
    2.7620   -8.3273   -0.0407 C   0  0  0  0  0  0  0  0  0  0  0  0
    3.3297   -7.3741   -0.7963 C   0  0  0  0  0  0  0  0  0  0  0  0
    3.1881   -5.9224   -0.4979 C   0  0  0  0  0  0  0  0  0  0  0  0
    4.1549   -7.6817   -2.0086 C   0  0  3  0  0  0  0  0  0  0  0  0
    5.4782   -7.2834   -1.6993 O   0  0  0  0  0  0  0  0  0  0  0  0
    6.4527   -7.5469   -2.6054 C   0  0  0  0  0  0  0  0  0  0  0  0
    7.5440   -6.9932   -2.5341 O   0  0  0  0  0  0  0  0  0  0  0  0
    6.1569   -8.4585   -3.5583 O   0  0  0  0  0  0  0  0  0  0  0  0
    5.0461   -9.3498   -3.4915 C   0  0  3  0  0  0  0  0  0  0  0  0
    4.2083   -9.1298   -2.2849 C   0  0  0  0  0  0  0  0  0  0  0  0
    3.5857  -10.0500   -1.5156 C   0  0  0  0  0  0  0  0  0  0  0  0
    2.8676   -9.6573   -0.3910 O   0  3  0  0  0  0  0  0  0  0  0  0
    3.6381  -11.5069   -1.7727 C   0  0  0  0  0  0  0  0  0  0  0  0
    4.6612  -12.3194   -1.1855 O   0  0  0  0  0  0  0  0  0  0  0  0
    3.2994  -12.4383   -0.7302 O   0  0  0  0  0  0  0  0  0  0  0  0
    4.1821   -9.0920   -4.5806 O   0  0  0  0  0  0  0  0  0  0  0  0
    1.2421   -6.4151    2.8339 C   0  0  0  0  0  0  0  0  0  0  0  0
    1.7311   -5.3906    3.6681 C   0  0  0  0  0  0  0  0  0  0  0  0
    1.1296   -5.0700    4.8183 N   0  3  0  0  0  0  0  0  0  0  0  0
    1.6128   -4.0382    5.5373 F   0  0  0  0  0  0  0  0  0  0  0  0
    0.0617   -5.7280    5.2713 C   0  0  0  0  0  0  0  0  0  0  0  0
   -0.4736   -6.7824    4.5368 C   0  0  0  0  0  0  0  0  0  0  0  0
    0.1033   -7.1515    3.2929 C   0  0  0  0  0  0  0  0  0  0  0  0
   -0.5305   -8.2237    2.6053 C   0  0  0  0  0  0  0  0  0  0  0  0
   -1.6518   -8.8959    3.1293 C   0  0  0  0  0  0  0  0  0  0  0  0
   -2.2645  -10.0531    2.4489 C   0  0  0  0  0  0  0  0  0  0  0  0
   -1.7579  -10.7050    1.4474 N   0  0  0  0  0  0  0  0  0  0  0  0
   -3.5669  -10.5515    3.0165 C   0  0  0  0  0  0  0  0  0  0  0  0
   -4.0071  -11.7265    2.6912 N   0  0  0  0  0  0  0  0  0  0  0  0
   -4.2659   -9.6112    3.9623 C   0  0  1  0  0  0  0  0  0  0  0  0
   -3.3376   -9.0189    4.8889 O   0  0  0  0  0  0  0  0  0  0  0  0
   -2.2102   -8.4812    4.3332 C   0  0  0  0  0  0  0  0  0  0  0  0
   -1.6012   -7.4463    5.0327 C   0  0  0  0  0  0  0  0  0  0  0  0
   -2.1188   -7.0492    6.2055 F   0  0  0  0  0  0  0  0  0  0  0  0
   -5.0423   -8.5433    3.2327 C   0  0  1  0  0  0  0  0  0  0  0  0
   -4.3058   -7.6595    2.3549 O   0  0  0  0  0  0  0  0  0  0  0  0
   -6.3280   -8.9438    2.7571 O   0  0  0  0  0  0  0  0  0  0  0  0
   -6.3218   -7.9723    3.8064 C   0  0  3  0  0  0  0  0  0  0  0  0
   -6.6492   -6.6393    3.3744 O   0  0  0  0  0  0  0  0  0  0  0  0
    2.6025   -1.9358    1.0420 C   0  0  0  0  0  0  0  0  0  0  0  0
    2.0803   -1.7864    2.1375 O   0  0  0  0  0  0  0  0  0  0  0  0
    3.1119   -0.7909    0.1982 C   0  0  0  0  0  0  0  0  0  0  0  0
    3.5272    0.2154    0.7457 O   0  0  0  0  0  0  0  0  0  0  0  0
    3.2139   -0.9816   -1.3101 C   0  0  0  0  0  0  0  0  0  0  0  0
    3.6574   -0.1191   -2.0460 O   0  0  0  0  0  0  0  0  0  0  0  0
  1  2  1  0  0  0  0
  2  3  2  0  0  0  0
  3  4  1  0  0  0  0
  3 53  1  0  0  0  0
  4  5  1  0  0  0  0
  5  6  1  1  0  0  0
  5 49  1  0  0  0  0
  6  7  1  0  0  0  0
  7  8  2  0  0  0  0
  7 12  1  0  0  0  0
  8  9  1  0  0  0  0
  8 26  1  0  0  0  0
  9 10  1  0  0  0  0
 10 11  2  0  0  0  0
 10 21  1  0  0  0  0
 11 12  1  0  0  0  0
 11 13  1  0  0  0  0
 13 14  1  0  0  0  0
 13 19  1  0  0  0  0
 14 15  1  0  0  0  0
 15 16  2  0  0  0  0
 15 17  1  0  0  0  0
 17 18  1  0  0  0  0
 18 19  1  0  0  0  0
 18 25  1  0  0  0  0
 19 20  2  0  0  0  0
 20 21  1  0  0  0  0
 20 22  1  0  0  0  0
 22 23  1  0  0  0  0
 22 24  1  0  0  0  0
 23 24  1  0  0  0  0
 26 27  2  0  0  0  0
 26 32  1  0  0  0  0
 27 28  1  0  0  0  0
 28 29  1  0  0  0  0
 28 30  2  0  0  0  0
 30 31  1  0  0  0  0
 31 32  2  0  0  0  0
 31 42  1  0  0  0  0
 32 33  1  0  0  0  0
 33 34  2  0  0  0  0
 34 35  1  0  0  0  0
 34 41  1  0  0  0  0
 35 36  2  0  0  0  0
 35 37  1  0  0  0  0
 37 38  2  0  0  0  0
 39 37  1  6  0  0  0
 39 40  1  0  0  0  0
 39 44  1  0  0  0  0
 40 41  1  0  0  0  0
 41 42  2  0  0  0  0
 42 43  1  0  0  0  0
 44 45  1  6  0  0  0
 44 46  1  0  0  0  0
 44 47  1  0  0  0  0
 46 47  1  0  0  0  0
 47 48  1  0  0  0  0
 49 50  2  0  0  0  0
 49 51  1  0  0  0  0
 51 52  2  0  0  0  0
 51 53  1  0  0  0  0
 53 54  2  0  0  0  0
M  CHG  2  21   1  28   1
M  END
$$$$