
 OpenBabel11212002313D

 53 61  0  0  1  0  0  0  0  0999 V2000
    0.0536    5.0262   -0.0620 O   0  0  0  0  0  0  0  0  0  0  0  0
    0.8530    4.1105    0.5737 C   0  0  0  0  0  0  0  0  0  0  0  0
    1.5144    3.1344   -0.0627 C   0  0  0  0  0  0  0  0  0  0  0  0
    1.4106    2.9452   -1.4308 O   0  0  0  0  0  0  0  0  0  0  0  0
    2.6260    2.5004   -2.0457 C   0  0  2  0  0  0  0  0  0  0  0  0
    2.5118    2.4731   -3.4902 O   0  0  0  0  0  0  0  0  0  0  0  0
    2.3473    3.6796   -4.1670 C   0  0  0  0  0  0  0  0  0  0  0  0
    2.2774    3.7439   -5.5204 C   0  0  0  0  0  0  0  0  0  0  0  0
    2.1639    4.9638   -6.2063 O   0  0  0  0  0  0  0  0  0  0  0  0
    2.1879    6.1697   -5.5001 C   0  0  0  0  0  0  0  0  0  0  0  0
    2.2205    6.1940   -4.1580 C   0  0  0  0  0  0  0  0  0  0  0  0
    2.2563    4.9429   -3.3483 C   0  0  0  0  0  0  0  0  0  0  0  0
    2.2544    7.4713   -3.3678 C   0  0  3  0  0  0  0  0  0  0  0  0
    3.4683    7.4791   -2.6322 O   0  0  0  0  0  0  0  0  0  0  0  0
    3.7056    8.5551   -1.8385 C   0  0  0  0  0  0  0  0  0  0  0  0
    4.5223    8.5173   -0.9337 O   0  0  0  0  0  0  0  0  0  0  0  0
    2.9765    9.6599   -2.1204 O   0  0  0  0  0  0  0  0  0  0  0  0
    2.4078    9.8871   -3.4038 C   0  0  3  0  0  0  0  0  0  0  0  0
    2.3162    8.6610   -4.2433 C   0  0  0  0  0  0  0  0  0  0  0  0
    2.3072    8.5792   -5.5945 C   0  0  0  0  0  0  0  0  0  0  0  0
    2.2046    7.3395   -6.2237 O   0  3  0  0  0  0  0  0  0  0  0  0
    2.3909    9.7521   -6.5016 C   0  0  0  0  0  0  0  0  0  0  0  0
    3.0073    9.6228   -7.7941 O   0  0  0  0  0  0  0  0  0  0  0  0
    1.5850    9.8211   -7.6872 O   0  0  0  0  0  0  0  0  0  0  0  0
    1.0714   10.3113   -3.2291 O   0  0  0  0  0  0  0  0  0  0  0  0
    2.3642    2.5640   -6.4265 C   0  0  0  0  0  0  0  0  0  0  0  0
    3.6152    2.1851   -6.8939 C   0  0  0  0  0  0  0  0  0  0  0  0
    3.8074    1.1366   -7.7127 N   0  0  0  0  0  0  0  0  0  0  0  0
    2.7418    0.3717   -8.0894 N   0  0  0  0  0  0  0  0  0  0  0  0
    1.4966    0.6665   -7.6918 C   0  0  0  0  0  0  0  0  0  0  0  0
    1.2515    1.7946   -6.8709 C   0  0  0  0  0  0  0  0  0  0  0  0
   -0.0940    2.0924   -6.5572 C   0  0  0  0  0  0  0  0  0  0  0  0
   -1.1484    1.2712   -6.9963 C   0  0  0  0  0  0  0  0  0  0  0  0
   -2.5339    1.6368   -6.6890 C   0  0  0  0  0  0  0  0  0  0  0  0
   -2.7914    2.6810   -6.1096 O   0  0  0  0  0  0  0  0  0  0  0  0
   -3.6185    0.6938   -7.1592 C   0  0  0  0  0  0  0  0  0  0  0  0
   -4.7863    1.0542   -7.1918 O   0  0  0  0  0  0  0  0  0  0  0  0
   -3.1336   -0.6903   -7.5237 C   0  0  1  0  0  0  0  0  0  0  0  0
   -1.8616   -0.7303   -8.1830 O   0  0  0  0  0  0  0  0  0  0  0  0
   -0.8977    0.1333   -7.7412 C   0  0  0  0  0  0  0  0  0  0  0  0
    0.4245   -0.1383   -8.0967 C   0  0  0  0  0  0  0  0  0  0  0  0
    0.6668   -1.2216   -8.8562 F   0  0  0  0  0  0  0  0  0  0  0  0
   -3.1347   -1.5922   -6.3297 C   0  0  1  0  0  0  0  0  0  0  0  0
   -2.3248   -1.1722   -5.2031 O   0  0  0  0  0  0  0  0  0  0  0  0
   -4.4037   -2.1557   -5.9979 O   0  0  0  0  0  0  0  0  0  0  0  0
   -3.4471   -3.0192   -6.4015 C   0  0  0  0  0  0  0  0  0  0  0  0
   -2.9544   -3.9543   -5.8190 O   0  0  0  0  0  0  0  0  0  0  0  0
    3.0058    1.1245   -1.5155 C   0  0  0  0  0  0  0  0  0  0  0  0
    3.4882    0.2180   -2.1763 O   0  0  0  0  0  0  0  0  0  0  0  0
    2.8182    1.0012   -0.0171 C   0  0  0  0  0  0  0  0  0  0  0  0
    3.0270   -0.0530    0.5587 O   0  0  0  0  0  0  0  0  0  0  0  0
    2.3427    2.2113    0.7580 C   0  0  0  0  0  0  0  0  0  0  0  0
    2.6633    2.4173    1.9146 O   0  0  0  0  0  0  0  0  0  0  0  0
  1  2  1  0  0  0  0
  2  3  2  0  0  0  0
  3  4  1  0  0  0  0
  3 52  1  0  0  0  0
  4  5  1  0  0  0  0
  5  6  1  6  0  0  0
  5 48  1  0  0  0  0
  6  7  1  0  0  0  0
  7  8  2  0  0  0  0
  7 12  1  0  0  0  0
  8  9  1  0  0  0  0
  8 26  1  0  0  0  0
  9 10  1  0  0  0  0
 10 11  2  0  0  0  0
 10 21  1  0  0  0  0
 11 12  1  0  0  0  0
 11 13  1  0  0  0  0
 13 14  1  0  0  0  0
 13 19  1  0  0  0  0
 14 15  1  0  0  0  0
 15 16  2  0  0  0  0
 15 17  1  0  0  0  0
 17 18  1  0  0  0  0
 18 19  1  0  0  0  0
 18 25  1  0  0  0  0
 19 20  2  0  0  0  0
 20 21  1  0  0  0  0
 20 22  1  0  0  0  0
 22 23  1  0  0  0  0
 22 24  1  0  0  0  0
 23 24  1  0  0  0  0
 26 27  2  0  0  0  0
 26 31  1  0  0  0  0
 27 28  1  0  0  0  0
 28 29  2  0  0  0  0
 29 30  1  0  0  0  0
 30 31  2  0  0  0  0
 30 41  1  0  0  0  0
 31 32  1  0  0  0  0
 32 33  2  0  0  0  0
 33 34  1  0  0  0  0
 33 40  1  0  0  0  0
 34 35  2  0  0  0  0
 34 36  1  0  0  0  0
 36 37  2  0  0  0  0
 38 36  1  1  0  0  0
 38 39  1  0  0  0  0
 38 43  1  0  0  0  0
 39 40  1  0  0  0  0
 40 41  2  0  0  0  0
 41 42  1  0  0  0  0
 43 44  1  1  0  0  0
 43 45  1  0  0  0  0
 43 46  1  0  0  0  0
 45 46  1  0  0  0  0
 46 47  2  0  0  0  0
 48 49  2  0  0  0  0
 48 50  1  0  0  0  0
 50 51  2  0  0  0  0
 50 52  1  0  0  0  0
 52 53  2  0  0  0  0
M  CHG  1  21   1
M  END
$$$$