
 OpenBabel09252009373D

 51 59  0  0  1  0  0  0  0  0999 V2000
    7.5143   -5.6281   -3.7730 O   0  0  0  0  0  0  0  0  0  0  0  0
    7.6630   -5.3464   -2.4380 C   0  0  0  0  0  0  0  0  0  0  0  0
    6.7019   -4.7567   -1.7187 C   0  0  0  0  0  0  0  0  0  0  0  0
    5.5112   -4.3809   -2.3209 O   0  0  0  0  0  0  0  0  0  0  0  0
    4.3661   -4.5657   -1.4810 C   0  0  2  0  0  0  0  0  0  0  0  0
    3.1620   -4.3076   -2.2112 O   0  0  0  0  0  0  0  0  0  0  0  0
    2.9325   -5.1090   -3.3255 C   0  0  0  0  0  0  0  0  0  0  0  0
    2.2283   -4.6393   -4.3766 C   0  0  0  0  0  0  0  0  0  0  0  0
    1.9838   -5.3759   -5.5304 O   0  0  0  0  0  0  0  0  0  0  0  0
    2.3286   -6.7184   -5.5592 C   0  0  0  0  0  0  0  0  0  0  0  0
    2.9469   -7.3045   -4.5219 C   0  0  0  0  0  0  0  0  0  0  0  0
    3.3825   -6.5548   -3.3066 C   0  0  0  0  0  0  0  0  0  0  0  0
    3.1788   -8.7743   -4.5901 C   0  0  0  0  0  0  0  0  0  0  0  0
    3.7228   -9.3982   -3.5985 N   0  0  0  0  0  0  0  0  0  0  0  0
    3.8957  -10.7676   -3.6806 C   0  0  0  0  0  0  0  0  0  0  0  0
    4.3942  -11.3383   -2.7198 O   0  0  0  0  0  0  0  0  0  0  0  0
    3.5431  -11.5153   -4.7870 N   0  0  0  0  0  0  0  0  0  0  0  0
    3.0021  -10.9193   -5.7920 C   0  0  0  0  0  0  0  0  0  0  0  0
    2.7546   -9.4783   -5.8204 C   0  0  0  0  0  0  0  0  0  0  0  0
    2.1991   -8.7864   -6.8346 C   0  0  0  0  0  0  0  0  0  0  0  0
    2.0053   -7.4182   -6.6936 N   0  0  0  0  0  0  0  0  0  0  0  0
    1.7596   -9.3769   -8.1212 C   0  0  0  0  0  0  0  0  0  0  0  0
    0.4384   -9.9072   -8.2935 O   0  0  0  0  0  0  0  0  0  0  0  0
    0.8250   -8.7024   -8.9831 O   0  0  0  0  0  0  0  0  0  0  0  0
    1.5642   -3.3294   -4.3723 C   0  0  0  0  0  0  0  0  0  0  0  0
    0.2977   -3.3679   -3.9070 N   0  0  0  0  0  0  0  0  0  0  0  0
   -0.3786   -2.2175   -3.9109 C   0  0  0  0  0  0  0  0  0  0  0  0
    0.0963   -1.0473   -4.3578 N   0  0  0  0  0  0  0  0  0  0  0  0
    1.3393   -1.0295   -4.8197 C   0  0  0  0  0  0  0  0  0  0  0  0
    2.1586   -2.1578   -4.8543 C   0  0  0  0  0  0  0  0  0  0  0  0
    3.4615   -2.0382   -5.3737 C   0  0  0  0  0  0  0  0  0  0  0  0
    3.9149   -0.8474   -5.8339 N   0  3  0  0  0  0  0  0  0  0  0  0
    3.1369    0.2508   -5.7735 C   0  0  0  0  0  0  0  0  0  0  0  0
    1.8397    0.1668   -5.2912 C   0  0  0  0  0  0  0  0  0  0  0  0
    3.5313    1.5009   -6.2132 O   0  0  0  0  0  0  0  0  0  0  0  0
    4.9474    1.7491   -6.2729 C   0  0  2  0  0  0  0  0  0  0  0  0
    5.6555    0.6195   -6.9580 C   0  0  0  0  0  0  0  0  0  0  0  0
    6.4457    0.7122   -7.8793 O   0  0  0  0  0  0  0  0  0  0  0  0
    5.2080   -0.7150   -6.4216 C   0  0  0  0  0  0  0  0  0  0  0  0
    5.9114   -1.7081   -6.4871 O   0  0  0  0  0  0  0  0  0  0  0  0
    5.5011    2.0178   -4.9032 C   0  0  1  0  0  0  0  0  0  0  0  0
    5.3748    0.9438   -3.9442 O   0  0  0  0  0  0  0  0  0  0  0  0
    6.7509    2.6907   -4.8591 O   0  0  0  0  0  0  0  0  0  0  0  0
    5.6845    3.3917   -4.4267 C   0  0  0  0  0  0  0  0  0  0  0  0
    5.2029    4.4248   -4.8365 O   0  0  0  0  0  0  0  0  0  0  0  0
    4.5223   -3.5703   -0.3484 C   0  0  0  0  0  0  0  0  0  0  0  0
    3.8132   -2.6016   -0.1247 O   0  0  0  0  0  0  0  0  0  0  0  0
    5.7806   -3.8303    0.4423 C   0  0  0  0  0  0  0  0  0  0  0  0
    5.8415   -3.5238    1.6199 O   0  0  0  0  0  0  0  0  0  0  0  0
    6.9509   -4.4896   -0.2692 C   0  0  0  0  0  0  0  0  0  0  0  0
    7.9878   -4.7671    0.3071 O   0  0  0  0  0  0  0  0  0  0  0  0
  1  2  1  0  0  0  0
  2  3  2  0  0  0  0
  3  4  1  0  0  0  0
  3 50  1  0  0  0  0
  4  5  1  0  0  0  0
  5  6  1  6  0  0  0
  5 46  1  0  0  0  0
  6  7  1  0  0  0  0
  7  8  2  0  0  0  0
  7 12  1  0  0  0  0
  8  9  1  0  0  0  0
  8 25  1  0  0  0  0
  9 10  1  0  0  0  0
 10 11  2  0  0  0  0
 10 21  1  0  0  0  0
 11 12  1  0  0  0  0
 11 13  1  0  0  0  0
 13 14  2  0  0  0  0
 13 19  1  0  0  0  0
 14 15  1  0  0  0  0
 15 16  2  0  0  0  0
 15 17  1  0  0  0  0
 17 18  2  0  0  0  0
 18 19  1  0  0  0  0
 19 20  2  0  0  0  0
 20 21  1  0  0  0  0
 20 22  1  0  0  0  0
 22 23  1  0  0  0  0
 22 24  1  0  0  0  0
 23 24  1  0  0  0  0
 25 26  2  0  0  0  0
 25 30  1  0  0  0  0
 26 27  1  0  0  0  0
 27 28  2  0  0  0  0
 28 29  1  0  0  0  0
 29 30  2  0  0  0  0
 29 34  1  0  0  0  0
 30 31  1  0  0  0  0
 31 32  2  0  0  0  0
 32 33  1  0  0  0  0
 32 39  1  0  0  0  0
 33 34  2  0  0  0  0
 33 35  1  0  0  0  0
 36 35  1  1  0  0  0
 36 37  1  0  0  0  0
 36 41  1  0  0  0  0
 37 38  2  0  0  0  0
 37 39  1  0  0  0  0
 39 40  2  0  0  0  0
 41 42  1  1  0  0  0
 41 43  1  0  0  0  0
 41 44  1  0  0  0  0
 43 44  1  0  0  0  0
 44 45  2  0  0  0  0
 46 47  2  0  0  0  0
 46 48  1  0  0  0  0
 48 49  2  0  0  0  0
 48 50  1  0  0  0  0
 50 51  2  0  0  0  0
M  CHG  1  32   1
M  END
$$$$