
 OpenBabel11012009573D

 52 60  0  0  1  0  0  0  0  0999 V2000
   -0.0174    1.0551   -6.4588 O   0  0  0  0  0  0  0  0  0  0  0  0
    0.1310    1.7148   -5.2659 C   0  0  0  0  0  0  0  0  0  0  0  0
    0.4289    1.0906   -4.1201 C   0  0  0  0  0  0  0  0  0  0  0  0
    0.5549   -0.2834   -4.0538 O   0  0  0  0  0  0  0  0  0  0  0  0
    1.6981   -0.6907   -3.3000 C   0  0  2  0  0  0  0  0  0  0  0  0
    1.8978   -2.1052   -3.3780 O   0  0  0  0  0  0  0  0  0  0  0  0
    2.0849   -2.6297   -4.6518 C   0  0  0  0  0  0  0  0  0  0  0  0
    1.7295   -3.8989   -4.9352 C   0  0  0  0  0  0  0  0  0  0  0  0
    1.9341   -4.4935   -6.1759 O   0  0  0  0  0  0  0  0  0  0  0  0
    2.4982   -3.7480   -7.1963 C   0  0  0  0  0  0  0  0  0  0  0  0
    2.8988   -2.4794   -7.0181 C   0  0  0  0  0  0  0  0  0  0  0  0
    2.7612   -1.7850   -5.7040 C   0  0  0  0  0  0  0  0  0  0  0  0
    3.4539   -1.6838   -8.1669 C   0  0  3  0  0  0  0  0  0  0  0  0
    4.7214   -1.1781   -7.7689 O   0  0  0  0  0  0  0  0  0  0  0  0
    5.2690   -0.3538   -8.7881 C   0  0  1  0  0  0  0  0  0  0  0  0
    6.6058    0.1584   -8.2787 C   0  0  0  0  0  0  0  0  0  0  0  0
    5.4976   -1.0767   -9.9862 O   0  0  0  0  0  0  0  0  0  0  0  0
    4.3385   -1.7031  -10.5123 C   0  0  3  0  0  0  0  0  0  0  0  0
    3.6270   -2.4658   -9.4409 C   0  0  0  0  0  0  0  0  0  0  0  0
    3.2157   -3.7535   -9.5273 C   0  0  0  0  0  0  0  0  0  0  0  0
    2.6336   -4.3516   -8.4199 N   0  0  0  0  0  0  0  0  0  0  0  0
    3.3404   -4.5929  -10.7406 C   0  0  0  0  0  0  0  0  0  0  0  0
    2.3637   -5.5919  -11.0816 O   0  0  0  0  0  0  0  0  0  0  0  0
    2.4830   -4.3966  -11.8773 O   0  0  0  0  0  0  0  0  0  0  0  0
    3.4930   -0.7507  -11.2059 N   0  0  0  0  0  0  0  0  0  0  0  0
    1.0923   -4.7930   -3.9565 C   0  0  0  0  0  0  0  0  0  0  0  0
   -0.2566   -4.7211   -3.9338 N   0  0  0  0  0  0  0  0  0  0  0  0
   -0.8694   -5.5734   -3.1108 C   0  0  0  0  0  0  0  0  0  0  0  0
   -0.2738   -6.4885   -2.3348 N   0  0  0  0  0  0  0  0  0  0  0  0
    1.0610   -6.5476   -2.3749 C   0  0  0  0  0  0  0  0  0  0  0  0
    1.8341   -5.6924   -3.1728 C   0  0  0  0  0  0  0  0  0  0  0  0
    3.2487   -5.7995   -3.1452 C   0  0  0  0  0  0  0  0  0  0  0  0
    3.8650   -6.7774   -2.3622 C   0  0  0  0  0  0  0  0  0  0  0  0
    3.0950   -7.6598   -1.6216 C   0  0  0  0  0  0  0  0  0  0  0  0
    1.7063   -7.5144   -1.6107 C   0  0  0  0  0  0  0  0  0  0  0  0
    3.6101   -8.6723   -0.8643 O   0  0  0  0  0  0  0  0  0  0  0  0
    4.8915   -9.1697   -1.2720 C   0  0  2  0  0  0  0  0  0  0  0  0
    5.8984   -8.1066   -1.6260 C   0  0  0  0  0  0  0  0  0  0  0  0
    7.1129   -8.2622   -1.5196 O   0  0  0  0  0  0  0  0  0  0  0  0
    5.3265   -6.8878   -2.3191 C   0  0  0  0  0  0  0  0  0  0  0  0
    6.0564   -6.0676   -2.8478 O   0  0  0  0  0  0  0  0  0  0  0  0
    4.7465  -10.2065   -2.3535 C   0  0  1  0  0  0  0  0  0  0  0  0
    3.9128  -11.3471   -2.0236 O   0  0  0  0  0  0  0  0  0  0  0  0
    4.5888   -9.6797   -3.6708 O   0  0  0  0  0  0  0  0  0  0  0  0
    5.6991  -10.4208   -3.4526 C   0  0  0  0  0  0  0  0  0  0  0  0
    6.0457  -11.4411   -3.9977 O   0  0  0  0  0  0  0  0  0  0  0  0
    1.5673   -0.2846   -1.8373 C   0  0  0  0  0  0  0  0  0  0  0  0
    2.0463   -0.8765   -0.8805 O   0  0  0  0  0  0  0  0  0  0  0  0
    0.8754    1.0486   -1.6606 C   0  0  0  0  0  0  0  0  0  0  0  0
    0.5306    1.4376   -0.5565 O   0  0  0  0  0  0  0  0  0  0  0  0
    0.6147    1.8989   -2.8871 C   0  0  0  0  0  0  0  0  0  0  0  0
    0.6287    3.1167   -2.8523 O   0  0  0  0  0  0  0  0  0  0  0  0
  1  2  1  0  0  0  0
  2  3  2  0  0  0  0
  3  4  1  0  0  0  0
  3 51  1  0  0  0  0
  4  5  1  0  0  0  0
  5  6  1  1  0  0  0
  5 47  1  0  0  0  0
  6  7  1  0  0  0  0
  7  8  2  0  0  0  0
  7 12  1  0  0  0  0
  8  9  1  0  0  0  0
  8 26  1  0  0  0  0
  9 10  1  0  0  0  0
 10 11  2  0  0  0  0
 10 21  1  0  0  0  0
 11 12  1  0  0  0  0
 11 13  1  0  0  0  0
 13 14  1  0  0  0  0
 13 19  1  0  0  0  0
 14 15  1  0  0  0  0
 15 16  1  1  0  0  0
 15 17  1  0  0  0  0
 17 18  1  0  0  0  0
 18 19  1  0  0  0  0
 18 25  1  0  0  0  0
 19 20  2  0  0  0  0
 20 21  1  0  0  0  0
 20 22  1  0  0  0  0
 22 23  1  0  0  0  0
 22 24  1  0  0  0  0
 23 24  1  0  0  0  0
 26 27  2  0  0  0  0
 26 31  1  0  0  0  0
 27 28  1  0  0  0  0
 28 29  2  0  0  0  0
 29 30  1  0  0  0  0
 30 31  2  0  0  0  0
 30 35  1  0  0  0  0
 31 32  1  0  0  0  0
 32 33  2  0  0  0  0
 33 34  1  0  0  0  0
 33 40  1  0  0  0  0
 34 35  2  0  0  0  0
 34 36  1  0  0  0  0
 37 36  1  6  0  0  0
 37 38  1  0  0  0  0
 37 42  1  0  0  0  0
 38 39  2  0  0  0  0
 38 40  1  0  0  0  0
 40 41  2  0  0  0  0
 42 43  1  1  0  0  0
 42 44  1  0  0  0  0
 42 45  1  0  0  0  0
 44 45  1  0  0  0  0
 45 46  2  0  0  0  0
 47 48  2  0  0  0  0
 47 49  1  0  0  0  0
 49 50  2  0  0  0  0
 49 51  1  0  0  0  0
 51 52  2  0  0  0  0
M  END
$$$$