
 OpenBabel11232002393D

 54 62  0  0  1  0  0  0  0  0999 V2000
    3.6043   -3.2486   -2.0205 O   0  0  0  0  0  0  0  0  0  0  0  0
    4.0711   -2.1326   -1.3711 C   0  0  0  0  0  0  0  0  0  0  0  0
    3.8589   -1.9115   -0.0677 C   0  0  0  0  0  0  0  0  0  0  0  0
    3.1181   -2.8178    0.6779 O   0  0  0  0  0  0  0  0  0  0  0  0
    3.2808   -2.7545    2.0921 C   0  0  2  0  0  0  0  0  0  0  0  0
    2.3405   -3.6504    2.7319 O   0  0  0  0  0  0  0  0  0  0  0  0
    2.4927   -5.0095    2.4892 C   0  0  0  0  0  0  0  0  0  0  0  0
    1.4322   -5.8527    2.4649 C   0  0  0  0  0  0  0  0  0  0  0  0
    1.6017   -7.2322    2.2455 O   0  0  0  0  0  0  0  0  0  0  0  0
    2.8818   -7.7977    2.2396 C   0  0  0  0  0  0  0  0  0  0  0  0
    3.9802   -7.0258    2.3147 C   0  0  0  0  0  0  0  0  0  0  0  0
    3.9018   -5.5332    2.3632 C   0  0  0  0  0  0  0  0  0  0  0  0
    5.3680   -7.6047    2.3404 C   0  0  3  0  0  0  0  0  0  0  0  0
    5.9203   -7.3291    3.6139 O   0  0  0  0  0  0  0  0  0  0  0  0
    7.1680   -7.8129    3.8679 C   0  0  0  0  0  0  0  0  0  0  0  0
    7.8229   -7.4085    4.8133 O   0  0  0  0  0  0  0  0  0  0  0  0
    7.6241   -8.7556    3.0083 O   0  0  0  0  0  0  0  0  0  0  0  0
    6.7607   -9.5731    2.2217 C   0  0  3  0  0  0  0  0  0  0  0  0
    5.3581   -9.0763    2.2194 C   0  0  0  0  0  0  0  0  0  0  0  0
    4.2209   -9.8021    2.1373 C   0  0  0  0  0  0  0  0  0  0  0  0
    2.9832   -9.1710    2.1570 O   0  3  0  0  0  0  0  0  0  0  0  0
    4.2001  -11.2592    1.9477 C   0  0  0  0  0  0  0  0  0  0  0  0
    4.6884  -12.1847    2.9394 N   0  0  0  0  0  0  0  0  0  0  0  0
    3.2768  -12.0525    2.7403 N   0  0  0  0  0  0  0  0  0  0  0  0
    7.1812   -9.5107    0.8738 O   0  0  0  0  0  0  0  0  0  0  0  0
    0.0027   -5.4169    2.6455 C   0  0  0  0  0  0  0  0  0  0  0  0
   -0.4187   -4.2093    2.0831 C   0  0  0  0  0  0  0  0  0  0  0  0
   -1.6832   -3.7896    2.1960 N   0  3  0  0  0  0  0  0  0  0  0  0
   -2.0274   -2.5962    1.6742 F   0  0  0  0  0  0  0  0  0  0  0  0
   -2.6204   -4.5093    2.7770 N   0  0  0  0  0  0  0  0  0  0  0  0
   -2.3097   -5.6838    3.3258 C   0  0  0  0  0  0  0  0  0  0  0  0
   -0.9887   -6.1807    3.3237 C   0  0  0  0  0  0  0  0  0  0  0  0
   -0.7579   -7.4020    4.0048 C   0  0  0  0  0  0  0  0  0  0  0  0
   -1.8061   -8.1489    4.5657 C   0  0  0  0  0  0  0  0  0  0  0  0
   -1.5235   -9.4462    5.1890 C   0  0  0  0  0  0  0  0  0  0  0  0
   -0.3868   -9.8966    5.1808 O   0  0  0  0  0  0  0  0  0  0  0  0
   -2.7103  -10.1913    5.7633 C   0  0  0  0  0  0  0  0  0  0  0  0
   -2.5513  -11.0568    6.6081 O   0  0  0  0  0  0  0  0  0  0  0  0
   -4.0333   -9.7998    5.1402 C   0  0  1  0  0  0  0  0  0  0  0  0
   -4.1890   -8.3801    4.9639 O   0  0  0  0  0  0  0  0  0  0  0  0
   -3.1065   -7.6918    4.4948 C   0  0  0  0  0  0  0  0  0  0  0  0
   -3.3294   -6.4464    3.9064 C   0  0  0  0  0  0  0  0  0  0  0  0
   -4.5859   -5.9750    3.8587 F   0  0  0  0  0  0  0  0  0  0  0  0
   -4.2272  -10.5064    3.8353 C   0  0  1  0  0  0  0  0  0  0  0  0
   -3.2425  -10.2424    2.7942 O   0  0  0  0  0  0  0  0  0  0  0  0
   -4.6724  -11.8506    3.9329 O   0  0  0  0  0  0  0  0  0  0  0  0
   -5.5275  -10.9841    3.3460 C   0  0  0  0  0  0  0  0  0  0  0  0
   -5.9304  -10.9534    2.2039 O   0  0  0  0  0  0  0  0  0  0  0  0
    2.9871   -1.3463    2.5591 C   0  0  0  0  0  0  0  0  0  0  0  0
    2.0652   -1.0140    3.2869 O   0  0  0  0  0  0  0  0  0  0  0  0
    3.9270   -0.3570    1.9258 C   0  0  0  0  0  0  0  0  0  0  0  0
    4.3330    0.5947    2.5660 O   0  0  0  0  0  0  0  0  0  0  0  0
    4.3903   -0.6356    0.5081 C   0  0  0  0  0  0  0  0  0  0  0  0
    5.1343    0.1211   -0.0890 O   0  0  0  0  0  0  0  0  0  0  0  0
  1  2  1  0  0  0  0
  2  3  2  0  0  0  0
  3  4  1  0  0  0  0
  3 53  1  0  0  0  0
  4  5  1  0  0  0  0
  5  6  1  1  0  0  0
  5 49  1  0  0  0  0
  6  7  1  0  0  0  0
  7  8  2  0  0  0  0
  7 12  1  0  0  0  0
  8  9  1  0  0  0  0
  8 26  1  0  0  0  0
  9 10  1  0  0  0  0
 10 11  2  0  0  0  0
 10 21  1  0  0  0  0
 11 12  1  0  0  0  0
 11 13  1  0  0  0  0
 13 14  1  0  0  0  0
 13 19  1  0  0  0  0
 14 15  1  0  0  0  0
 15 16  2  0  0  0  0
 15 17  1  0  0  0  0
 17 18  1  0  0  0  0
 18 19  1  0  0  0  0
 18 25  1  0  0  0  0
 19 20  2  0  0  0  0
 20 21  1  0  0  0  0
 20 22  1  0  0  0  0
 22 23  1  0  0  0  0
 22 24  1  0  0  0  0
 23 24  1  0  0  0  0
 26 27  2  0  0  0  0
 26 32  1  0  0  0  0
 27 28  1  0  0  0  0
 28 29  1  0  0  0  0
 28 30  2  0  0  0  0
 30 31  1  0  0  0  0
 31 32  2  0  0  0  0
 31 42  1  0  0  0  0
 32 33  1  0  0  0  0
 33 34  2  0  0  0  0
 34 35  1  0  0  0  0
 34 41  1  0  0  0  0
 35 36  2  0  0  0  0
 35 37  1  0  0  0  0
 37 38  2  0  0  0  0
 39 37  1  6  0  0  0
 39 40  1  0  0  0  0
 39 44  1  0  0  0  0
 40 41  1  0  0  0  0
 41 42  2  0  0  0  0
 42 43  1  0  0  0  0
 44 45  1  6  0  0  0
 44 46  1  0  0  0  0
 44 47  1  0  0  0  0
 46 47  1  0  0  0  0
 47 48  2  0  0  0  0
 49 50  2  0  0  0  0
 49 51  1  0  0  0  0
 51 52  2  0  0  0  0
 51 53  1  0  0  0  0
 53 54  2  0  0  0  0
M  CHG  2  21   1  28   1
M  END
$$$$