
 OpenBabel09222017323D

 49 56  0  0  1  0  0  0  0  0999 V2000
    6.1126    8.5414    0.3436 O   0  0  0  0  0  0  0  0  0  0  0  0
    6.3508    7.3511    0.5385 C   0  0  0  0  0  0  0  0  0  0  0  0
    5.9101    6.2803   -0.4264 C   0  0  2  0  0  0  0  0  0  0  0  0
    4.6281    5.8149   -0.0176 O   0  0  0  0  0  0  0  0  0  0  0  0
    3.9527    5.1156   -1.0624 C   0  0  2  0  0  0  0  0  0  0  0  0
    2.5940    4.8476   -0.7087 O   0  0  0  0  0  0  0  0  0  0  0  0
    1.8008    5.9388   -0.3580 C   0  0  0  0  0  0  0  0  0  0  0  0
    0.7603    5.8015    0.4902 C   0  0  0  0  0  0  0  0  0  0  0  0
   -0.0204    6.8630    0.9379 O   0  0  0  0  0  0  0  0  0  0  0  0
    0.3899    8.1475    0.6574 C   0  0  0  0  0  0  0  0  0  0  0  0
    1.3890    8.4261   -0.2756 C   0  0  0  0  0  0  0  0  0  0  0  0
    2.0844    7.2881   -0.9632 C   0  0  0  0  0  0  0  0  0  0  0  0
    1.7520    9.7657   -0.5120 C   0  0  0  0  0  0  0  0  0  0  0  0
    2.7186   10.0775   -1.4783 N   0  0  0  0  0  0  0  0  0  0  0  0
    3.2729   11.3037   -1.6539 C   0  0  0  0  0  0  0  0  0  0  0  0
    4.1574   11.4922   -2.4824 O   0  0  0  0  0  0  0  0  0  0  0  0
    2.8249   12.2980   -0.8524 N   0  0  0  0  0  0  0  0  0  0  0  0
    1.5929   12.2185   -0.1131 C   0  0  0  0  0  0  0  0  0  0  0  0
    1.1724   10.8165    0.2133 C   0  0  0  0  0  0  0  0  0  0  0  0
    0.1779   10.5058    1.1474 C   0  0  0  0  0  0  0  0  0  0  0  0
   -0.2206    9.1840    1.3611 C   0  0  0  0  0  0  0  0  0  0  0  0
   -0.4694   11.4467    1.8980 O   0  0  0  0  0  0  0  0  0  0  0  0
    0.3384    4.4934    1.0311 C   0  0  0  0  0  0  0  0  0  0  0  0
   -0.6214    3.8688    0.2979 N   0  0  0  0  0  0  0  0  0  0  0  0
   -1.0649    2.6755    0.7392 C   0  0  0  0  0  0  0  0  0  0  0  0
   -0.6096    2.0641    1.8928 C   0  0  0  0  0  0  0  0  0  0  0  0
    0.3641    2.7107    2.6583 C   0  0  0  0  0  0  0  0  0  0  0  0
    0.8698    3.9595    2.2285 C   0  0  0  0  0  0  0  0  0  0  0  0
    1.8490    4.5900    3.0293 C   0  0  0  0  0  0  0  0  0  0  0  0
    2.2876    4.0054    4.2249 C   0  0  0  0  0  0  0  0  0  0  0  0
    1.7890    2.7797    4.6385 C   0  0  0  0  0  0  0  0  0  0  0  0
    0.8311    2.1361    3.8546 C   0  0  0  0  0  0  0  0  0  0  0  0
    2.1289    2.1479    5.7964 O   0  0  0  0  0  0  0  0  0  0  0  0
    3.3148    2.5812    6.4624 C   0  0  2  0  0  0  0  0  0  0  0  0
    3.6763    4.0421    6.3496 C   0  0  0  0  0  0  0  0  0  0  0  0
    4.3871    4.6239    7.1586 O   0  0  0  0  0  0  0  0  0  0  0  0
    3.2612    4.7085    5.0622 C   0  0  0  0  0  0  0  0  0  0  0  0
    3.7547    5.7739    4.7269 O   0  0  0  0  0  0  0  0  0  0  0  0
    4.4647    1.6874    6.1007 C   0  0  1  0  0  0  0  0  0  0  0  0
    4.2934    0.2826    6.4111 O   0  0  0  0  0  0  0  0  0  0  0  0
    5.0724    1.9796    4.8418 O   0  0  0  0  0  0  0  0  0  0  0  0
    5.8558    2.1221    5.9352 C   0  0  0  0  0  0  0  0  0  0  0  0
    6.8886    1.5573    6.2099 O   0  0  0  0  0  0  0  0  0  0  0  0
    4.6916    3.8149   -1.3715 C   0  0  0  0  0  0  0  0  0  0  0  0
    4.1922    2.8250   -1.8874 O   0  0  0  0  0  0  0  0  0  0  0  0
    6.1826    3.8618   -1.0776 C   0  0  0  0  0  0  0  0  0  0  0  0
    6.8871    2.9016   -1.3538 O   0  0  0  0  0  0  0  0  0  0  0  0
    6.8240    5.0963   -0.4718 C   0  0  0  0  0  0  0  0  0  0  0  0
    7.9883    5.1011   -0.1051 O   0  0  0  0  0  0  0  0  0  0  0  0
  1  2  2  0  0  0  0
  3  4  1  0  0  0  0
  3 48  1  0  0  0  0
  3  2  1  1  0  0  0
  4  5  1  0  0  0  0
  5  6  1  1  0  0  0
  5 44  1  0  0  0  0
  6  7  1  0  0  0  0
  7  8  2  0  0  0  0
  7 12  1  0  0  0  0
  8  9  1  0  0  0  0
  8 23  1  0  0  0  0
  9 10  1  0  0  0  0
 10 11  2  0  0  0  0
 10 21  1  0  0  0  0
 11 12  1  0  0  0  0
 11 13  1  0  0  0  0
 13 14  1  0  0  0  0
 13 19  2  0  0  0  0
 14 15  1  0  0  0  0
 15 16  2  0  0  0  0
 15 17  1  0  0  0  0
 17 18  1  0  0  0  0
 18 19  1  0  0  0  0
 19 20  1  0  0  0  0
 20 21  2  0  0  0  0
 20 22  1  0  0  0  0
 23 24  2  0  0  0  0
 23 28  1  0  0  0  0
 24 25  1  0  0  0  0
 25 26  2  0  0  0  0
 26 27  1  0  0  0  0
 27 28  2  0  0  0  0
 27 32  1  0  0  0  0
 28 29  1  0  0  0  0
 29 30  2  0  0  0  0
 30 31  1  0  0  0  0
 30 37  1  0  0  0  0
 31 32  2  0  0  0  0
 31 33  1  0  0  0  0
 34 33  1  6  0  0  0
 34 35  1  0  0  0  0
 34 39  1  0  0  0  0
 35 36  2  0  0  0  0
 35 37  1  0  0  0  0
 37 38  2  0  0  0  0
 39 40  1  1  0  0  0
 39 41  1  0  0  0  0
 39 42  1  0  0  0  0
 41 42  1  0  0  0  0
 42 43  2  0  0  0  0
 44 45  2  0  0  0  0
 44 46  1  0  0  0  0
 46 47  2  0  0  0  0
 46 48  1  0  0  0  0
 48 49  2  0  0  0  0
M  END
$$$$