
 OpenBabel11152013053D

 53 61  0  0  1  0  0  0  0  0999 V2000
   -1.8548   -2.3469   -3.9281 O   0  0  0  0  0  0  0  0  0  0  0  0
   -1.3247   -1.3949   -3.0953 C   0  0  0  0  0  0  0  0  0  0  0  0
   -0.2929   -1.6379   -2.2772 C   0  0  0  0  0  0  0  0  0  0  0  0
    0.2667   -2.8992   -2.2174 O   0  0  0  0  0  0  0  0  0  0  0  0
    1.6357   -2.9480   -1.8098 C   0  0  2  0  0  0  0  0  0  0  0  0
    2.0674   -4.3101   -1.6137 O   0  0  0  0  0  0  0  0  0  0  0  0
    2.0234   -5.1227   -2.7443 C   0  0  0  0  0  0  0  0  0  0  0  0
    1.8193   -6.4544   -2.6536 C   0  0  0  0  0  0  0  0  0  0  0  0
    1.8318   -7.3001   -3.7597 O   0  0  0  0  0  0  0  0  0  0  0  0
    2.2451   -6.8098   -4.9964 C   0  0  0  0  0  0  0  0  0  0  0  0
    2.5431   -5.5124   -5.1731 C   0  0  0  0  0  0  0  0  0  0  0  0
    2.3671   -4.5099   -4.0784 C   0  0  0  0  0  0  0  0  0  0  0  0
    3.0455   -4.9889   -6.4821 C   0  0  3  0  0  0  0  0  0  0  0  0
    4.3509   -4.4566   -6.2675 O   0  0  0  0  0  0  0  0  0  0  0  0
    5.1782   -4.1872   -7.3084 C   0  0  0  0  0  0  0  0  0  0  0  0
    6.2151   -3.5575   -7.1455 O   0  0  0  0  0  0  0  0  0  0  0  0
    4.8209   -4.6529   -8.5299 O   0  0  0  0  0  0  0  0  0  0  0  0
    3.6556   -5.4307   -8.7706 C   0  0  3  0  0  0  0  0  0  0  0  0
    3.1295   -6.0272   -7.5254 C   0  0  0  0  0  0  0  0  0  0  0  0
    2.7809   -7.3119   -7.3067 C   0  0  0  0  0  0  0  0  0  0  0  0
    2.3406   -7.7221   -6.0415 O   0  0  0  0  0  0  0  0  0  0  0  0
    2.8089   -8.3670   -8.3408 C   0  0  0  0  0  0  0  0  0  0  0  0
    4.0205   -8.7466   -9.0145 O   0  0  0  0  0  0  0  0  0  0  0  0
    3.3880   -9.6582   -8.0970 O   0  0  0  0  0  0  0  0  0  0  0  0
    2.6481   -4.5903   -9.3098 O   0  0  0  0  0  0  0  0  0  0  0  0
    1.7551   -7.1618   -1.3625 C   0  0  0  0  0  0  0  0  0  0  0  0
    2.9768   -7.5409   -0.9249 N   0  0  0  0  0  0  0  0  0  0  0  0
    3.0873   -8.1418    0.2211 N   0  0  0  0  0  0  0  0  0  0  0  0
    2.0534   -8.3691    0.9891 N   0  0  0  0  0  0  0  0  0  0  0  0
    0.8192   -8.0162    0.6014 C   0  0  0  0  0  0  0  0  0  0  0  0
    0.5908   -7.4060   -0.6324 C   0  0  0  0  0  0  0  0  0  0  0  0
   -0.7415   -7.0959   -1.0276 C   0  0  0  0  0  0  0  0  0  0  0  0
   -1.8155   -7.3538   -0.1651 C   0  0  0  0  0  0  0  0  0  0  0  0
   -3.1995   -7.0737   -0.5703 C   0  0  0  0  0  0  0  0  0  0  0  0
   -3.4821   -6.6829   -1.6904 O   0  0  0  0  0  0  0  0  0  0  0  0
   -4.2698   -7.3023    0.4732 C   0  0  0  0  0  0  0  0  0  0  0  0
   -5.4467   -7.4165    0.1626 O   0  0  0  0  0  0  0  0  0  0  0  0
   -3.7555   -7.3303    1.8888 C   0  0  1  0  0  0  0  0  0  0  0  0
   -2.5499   -8.0962    2.0412 O   0  0  0  0  0  0  0  0  0  0  0  0
   -1.5832   -7.8847    1.0938 C   0  0  0  0  0  0  0  0  0  0  0  0
   -0.2778   -8.2391    1.4448 C   0  0  0  0  0  0  0  0  0  0  0  0
   -0.0666   -8.8078    2.6836 O   0  0  0  0  0  0  0  0  0  0  0  0
   -3.5908   -5.9491    2.4545 C   0  0  1  0  0  0  0  0  0  0  0  0
   -2.6879   -5.0571    1.7737 O   0  0  0  0  0  0  0  0  0  0  0  0
   -4.7758   -5.3164    2.9445 O   0  0  0  0  0  0  0  0  0  0  0  0
   -3.8644   -5.6914    3.8583 C   0  0  0  0  0  0  0  0  0  0  0  0
   -3.9669   -6.4106    4.8277 O   0  0  0  0  0  0  0  0  0  0  0  0
    1.8540   -2.1551   -0.5232 C   0  0  3  0  0  0  0  0  0  0  0  0
    1.5846   -0.6936   -0.8117 C   0  0  3  0  0  0  0  0  0  0  0  0
    0.2270   -0.5006   -1.4462 C   0  0  0  0  0  0  0  0  0  0  0  0
   -0.3786    0.5696   -1.3877 O   0  0  0  0  0  0  0  0  0  0  0  0
    1.7435    0.0289    0.3343 F   0  0  0  0  0  0  0  0  0  0  0  0
    0.9883   -2.5931    0.4371 F   0  0  0  0  0  0  0  0  0  0  0  0
  1  2  1  0  0  0  0
  2  3  2  0  0  0  0
  3  4  1  0  0  0  0
  3 50  1  0  0  0  0
  4  5  1  0  0  0  0
  5  6  1  1  0  0  0
  5 48  1  0  0  0  0
  6  7  1  0  0  0  0
  7  8  2  0  0  0  0
  7 12  1  0  0  0  0
  8  9  1  0  0  0  0
  8 26  1  0  0  0  0
  9 10  1  0  0  0  0
 10 11  2  0  0  0  0
 10 21  1  0  0  0  0
 11 12  1  0  0  0  0
 11 13  1  0  0  0  0
 13 14  1  0  0  0  0
 13 19  1  0  0  0  0
 14 15  1  0  0  0  0
 15 16  2  0  0  0  0
 15 17  1  0  0  0  0
 17 18  1  0  0  0  0
 18 19  1  0  0  0  0
 18 25  1  0  0  0  0
 19 20  2  0  0  0  0
 20 21  1  0  0  0  0
 20 22  1  0  0  0  0
 22 23  1  0  0  0  0
 22 24  1  0  0  0  0
 23 24  1  0  0  0  0
 26 27  2  0  0  0  0
 26 31  1  0  0  0  0
 27 28  1  0  0  0  0
 28 29  2  0  0  0  0
 29 30  1  0  0  0  0
 30 31  2  0  0  0  0
 30 41  1  0  0  0  0
 31 32  1  0  0  0  0
 32 33  2  0  0  0  0
 33 34  1  0  0  0  0
 33 40  1  0  0  0  0
 34 35  2  0  0  0  0
 34 36  1  0  0  0  0
 36 37  2  0  0  0  0
 38 36  1  6  0  0  0
 38 39  1  0  0  0  0
 38 43  1  0  0  0  0
 39 40  1  0  0  0  0
 40 41  2  0  0  0  0
 41 42  1  0  0  0  0
 43 44  1  6  0  0  0
 43 45  1  0  0  0  0
 43 46  1  0  0  0  0
 45 46  1  0  0  0  0
 46 47  2  0  0  0  0
 48 49  1  0  0  0  0
 48 53  1  0  0  0  0
 49 50  1  0  0  0  0
 49 52  1  0  0  0  0
 50 51  2  0  0  0  0
M  END
$$$$