
 OpenBabel11232015013D

 54 62  0  0  1  0  0  0  0  0999 V2000
   -0.4140   -3.4902   -3.4439 O   0  0  0  0  0  0  0  0  0  0  0  0
    0.0622   -2.2775   -3.0144 C   0  0  0  0  0  0  0  0  0  0  0  0
    0.7476   -2.1388   -1.8736 C   0  0  0  0  0  0  0  0  0  0  0  0
    0.9701   -3.2330   -1.0533 O   0  0  0  0  0  0  0  0  0  0  0  0
    2.2043   -3.1852   -0.3449 C   0  0  2  0  0  0  0  0  0  0  0  0
    2.4110   -4.3852    0.4184 O   0  0  0  0  0  0  0  0  0  0  0  0
    2.4734   -5.5677   -0.3073 C   0  0  0  0  0  0  0  0  0  0  0  0
    2.0840   -6.7324    0.2484 C   0  0  0  0  0  0  0  0  0  0  0  0
    2.1847   -7.9591   -0.3893 O   0  0  0  0  0  0  0  0  0  0  0  0
    2.8512   -8.0280   -1.6038 C   0  0  0  0  0  0  0  0  0  0  0  0
    3.3322   -6.9331   -2.2213 C   0  0  0  0  0  0  0  0  0  0  0  0
    3.1028   -5.5566   -1.6806 C   0  0  0  0  0  0  0  0  0  0  0  0
    4.1266   -7.0623   -3.5019 C   0  0  3  0  0  0  0  0  0  0  0  0
    5.4060   -6.4927   -3.2749 O   0  0  0  0  0  0  0  0  0  0  0  0
    6.3547   -6.6408   -4.2389 C   0  0  0  0  0  0  0  0  0  0  0  0
    7.3625   -5.9480   -4.2236 O   0  0  0  0  0  0  0  0  0  0  0  0
    6.1219   -7.5500   -5.2194 O   0  0  0  0  0  0  0  0  0  0  0  0
    5.2238   -8.5418   -5.0782 C   0  0  0  0  0  0  0  0  0  0  0  0
    5.1027   -9.4401   -5.9003 O   0  0  0  0  0  0  0  0  0  0  0  0
    4.3489   -8.4584   -3.9200 C   0  0  0  0  0  0  0  0  0  0  0  0
    3.8071   -9.5202   -3.2884 C   0  0  0  0  0  0  0  0  0  0  0  0
    3.0340   -9.2709   -2.1546 N   0  0  0  0  0  0  0  0  0  0  0  0
    4.0046  -10.9291   -3.6804 C   0  0  3  0  0  0  0  0  0  0  0  0
    3.9380  -11.9332   -2.6701 N   0  0  0  0  0  0  0  0  0  0  0  0
    5.0760  -11.6444   -3.0822 N   0  0  0  0  0  0  0  0  0  0  0  0
    1.6212   -6.8166    1.6402 C   0  0  0  0  0  0  0  0  0  0  0  0
    2.5907   -7.0368    2.6108 C   0  0  0  0  0  0  0  0  0  0  0  0
    2.2587   -7.0847    3.9015 N   0  3  0  0  0  0  0  0  0  0  0  0
    3.2216   -7.2992    4.8178 F   0  0  0  0  0  0  0  0  0  0  0  0
    1.0195   -6.9244    4.3206 N   0  0  0  0  0  0  0  0  0  0  0  0
    0.0411   -6.6988    3.4339 C   0  0  0  0  0  0  0  0  0  0  0  0
    0.2889   -6.6428    2.0492 C   0  0  0  0  0  0  0  0  0  0  0  0
   -0.7920   -6.4144    1.1602 C   0  0  0  0  0  0  0  0  0  0  0  0
   -2.0904   -6.2158    1.6463 C   0  0  0  0  0  0  0  0  0  0  0  0
   -3.2105   -5.9873    0.7267 C   0  0  0  0  0  0  0  0  0  0  0  0
   -3.0814   -6.1412   -0.4760 O   0  0  0  0  0  0  0  0  0  0  0  0
   -4.5107   -5.4975    1.3300 C   0  0  0  0  0  0  0  0  0  0  0  0
   -5.4660   -5.2106    0.6234 O   0  0  0  0  0  0  0  0  0  0  0  0
   -4.4527   -5.2027    2.8119 C   0  0  1  0  0  0  0  0  0  0  0  0
   -3.5671   -6.0551    3.5599 O   0  0  0  0  0  0  0  0  0  0  0  0
   -2.3316   -6.2368    3.0067 C   0  0  0  0  0  0  0  0  0  0  0  0
   -1.2702   -6.4986    3.8784 C   0  0  0  0  0  0  0  0  0  0  0  0
   -1.5149   -6.5409    5.2317 O   0  0  0  0  0  0  0  0  0  0  0  0
   -4.1526   -3.7609    3.1053 C   0  0  1  0  0  0  0  0  0  0  0  0
   -3.9940   -3.4296    4.5071 O   0  0  0  0  0  0  0  0  0  0  0  0
   -3.2039   -3.1615    2.2233 O   0  0  0  0  0  0  0  0  0  0  0  0
   -4.4494   -2.6305    2.2199 C   0  0  0  0  0  0  0  0  0  0  0  0
   -4.7862   -1.4993    2.4951 O   0  0  0  0  0  0  0  0  0  0  0  0
    2.1689   -2.0007    0.5976 C   0  0  0  0  0  0  0  0  0  0  0  0
    2.3231   -2.0395    1.8090 O   0  0  0  0  0  0  0  0  0  0  0  0
    1.9173   -0.7121   -0.1451 C   0  0  0  0  0  0  0  0  0  0  0  0
    2.3122    0.3446    0.3171 O   0  0  0  0  0  0  0  0  0  0  0  0
    1.2323   -0.7760   -1.4999 C   0  0  0  0  0  0  0  0  0  0  0  0
    1.1370    0.2017   -2.2210 O   0  0  0  0  0  0  0  0  0  0  0  0
  1  2  1  0  0  0  0
  2  3  2  0  0  0  0
  3  4  1  0  0  0  0
  3 53  1  0  0  0  0
  4  5  1  0  0  0  0
  5  6  1  1  0  0  0
  5 49  1  0  0  0  0
  6  7  1  0  0  0  0
  7  8  2  0  0  0  0
  7 12  1  0  0  0  0
  8  9  1  0  0  0  0
  8 26  1  0  0  0  0
  9 10  1  0  0  0  0
 10 11  2  0  0  0  0
 10 22  1  0  0  0  0
 11 12  1  0  0  0  0
 11 13  1  0  0  0  0
 13 14  1  0  0  0  0
 13 20  1  0  0  0  0
 14 15  1  0  0  0  0
 15 16  2  0  0  0  0
 15 17  1  0  0  0  0
 17 18  1  0  0  0  0
 18 19  2  0  0  0  0
 18 20  1  0  0  0  0
 20 21  2  0  0  0  0
 21 22  1  0  0  0  0
 21 23  1  0  0  0  0
 23 24  1  0  0  0  0
 23 25  1  0  0  0  0
 24 25  2  0  0  0  0
 26 27  2  0  0  0  0
 26 32  1  0  0  0  0
 27 28  1  0  0  0  0
 28 29  1  0  0  0  0
 28 30  2  0  0  0  0
 30 31  1  0  0  0  0
 31 32  2  0  0  0  0
 31 42  1  0  0  0  0
 32 33  1  0  0  0  0
 33 34  2  0  0  0  0
 34 35  1  0  0  0  0
 34 41  1  0  0  0  0
 35 36  2  0  0  0  0
 35 37  1  0  0  0  0
 37 38  2  0  0  0  0
 39 37  1  6  0  0  0
 39 40  1  0  0  0  0
 39 44  1  0  0  0  0
 40 41  1  0  0  0  0
 41 42  2  0  0  0  0
 42 43  1  0  0  0  0
 44 45  1  1  0  0  0
 44 46  1  0  0  0  0
 44 47  1  0  0  0  0
 46 47  1  0  0  0  0
 47 48  2  0  0  0  0
 49 50  2  0  0  0  0
 49 51  1  0  0  0  0
 51 52  2  0  0  0  0
 51 53  1  0  0  0  0
 53 54  2  0  0  0  0
M  CHG  1  28   1
M  END
$$$$