
 OpenBabel11272001083D

 54 62  0  0  1  0  0  0  0  0999 V2000
    6.3931   -4.7203   -4.9083 O   0  0  0  0  0  0  0  0  0  0  0  0
    5.8718   -5.1005   -3.7006 C   0  0  0  0  0  0  0  0  0  0  0  0
    4.8715   -4.4596   -3.0802 C   0  0  0  0  0  0  0  0  0  0  0  0
    4.3040   -3.3118   -3.5981 O   0  0  0  0  0  0  0  0  0  0  0  0
    2.8874   -3.2551   -3.4468 C   0  0  2  0  0  0  0  0  0  0  0  0
    2.3314   -2.0983   -4.1101 O   0  0  0  0  0  0  0  0  0  0  0  0
    2.4332   -2.0256   -5.5051 C   0  0  0  0  0  0  0  0  0  0  0  0
    2.4823   -0.8388   -6.1603 C   0  0  0  0  0  0  0  0  0  0  0  0
    2.5822   -0.7235   -7.5453 O   0  0  0  0  0  0  0  0  0  0  0  0
    2.8083   -1.8511   -8.3003 C   0  0  0  0  0  0  0  0  0  0  0  0
    2.7557   -3.1126   -7.7570 C   0  0  0  0  0  0  0  0  0  0  0  0
    2.4292   -3.3077   -6.3097 C   0  0  0  0  0  0  0  0  0  0  0  0
    3.0207   -4.1731   -8.6208 C   0  0  0  0  0  0  0  0  0  0  0  0
    2.9809   -5.4694   -8.0954 O   0  0  0  0  0  0  0  0  0  0  0  0
    3.1859   -6.6204   -8.8530 C   0  0  0  0  0  0  0  0  0  0  0  0
    3.1032   -7.7298   -8.3419 O   0  0  0  0  0  0  0  0  0  0  0  0
    3.4846   -6.4469  -10.1587 O   0  0  0  0  0  0  0  0  0  0  0  0
    3.6439   -5.1754  -10.7892 C   0  0  3  0  0  0  0  0  0  0  0  0
    3.3304   -3.9841   -9.9528 C   0  0  0  0  0  0  0  0  0  0  0  0
    3.3401   -2.6710  -10.4402 C   0  0  0  0  0  0  0  0  0  0  0  0
    3.0877   -1.6228   -9.6028 N   0  0  0  0  0  0  0  0  0  0  0  0
    3.6508   -2.3367  -11.8830 C   0  0  0  0  0  0  0  0  0  0  0  0
    2.7983   -2.8775  -12.9042 O   0  0  0  0  0  0  0  0  0  0  0  0
    2.7252   -1.4786  -12.5723 O   0  0  0  0  0  0  0  0  0  0  0  0
    4.9768   -5.0873  -11.2774 O   0  0  0  0  0  0  0  0  0  0  0  0
    2.4758    0.4893   -5.5010 C   0  0  0  0  0  0  0  0  0  0  0  0
    3.6897    0.8857   -5.0742 N   0  0  0  0  0  0  0  0  0  0  0  0
    3.7442    2.0891   -4.4989 C   0  0  0  0  0  0  0  0  0  0  0  0
    4.9501    2.5203   -4.1027 F   0  0  0  0  0  0  0  0  0  0  0  0
    2.7104    2.9165   -4.2972 N   0  0  0  0  0  0  0  0  0  0  0  0
    1.5040    2.5221   -4.7304 C   0  0  0  0  0  0  0  0  0  0  0  0
    1.3236    1.2960   -5.3938 C   0  0  0  0  0  0  0  0  0  0  0  0
    0.0364    0.9591   -5.8745 C   0  0  0  0  0  0  0  0  0  0  0  0
   -1.0556    1.8039   -5.6468 C   0  0  0  0  0  0  0  0  0  0  0  0
   -2.3985    1.3784   -6.0471 C   0  0  0  0  0  0  0  0  0  0  0  0
   -2.5991    0.4373   -6.7963 O   0  0  0  0  0  0  0  0  0  0  0  0
   -3.5337    2.1837   -5.4739 C   0  0  0  0  0  0  0  0  0  0  0  0
   -4.6122    1.6683   -5.2229 O   0  0  0  0  0  0  0  0  0  0  0  0
   -3.2022    3.6438   -5.3219 C   0  0  1  0  0  0  0  0  0  0  0  0
   -1.9149    3.9036   -4.7418 O   0  0  0  0  0  0  0  0  0  0  0  0
   -0.8965    3.0130   -4.9847 C   0  0  0  0  0  0  0  0  0  0  0  0
    0.3892    3.3745   -4.5304 C   0  0  0  0  0  0  0  0  0  0  0  0
    0.5181    4.4891   -3.6540 N   0  0  0  0  0  0  0  0  0  0  0  0
   -3.3482    4.3493   -6.6421 C   0  0  1  0  0  0  0  0  0  0  0  0
   -2.5024    3.8952   -7.7213 O   0  0  0  0  0  0  0  0  0  0  0  0
   -4.6947    4.6220   -7.0514 O   0  0  0  0  0  0  0  0  0  0  0  0
   -3.9263    5.6739   -6.7414 C   0  0  0  0  0  0  0  0  0  0  0  0
   -4.0993    6.5689   -5.9321 O   0  0  0  0  0  0  0  0  0  0  0  0
    2.5202   -3.3258   -1.9497 C   0  0  0  0  0  0  0  0  0  0  0  0
    1.6645   -2.6044   -1.4313 O   0  0  0  0  0  0  0  0  0  0  0  0
    3.1389   -4.4788   -1.1876 C   0  0  3  0  0  0  0  0  0  0  0  0
    4.3910   -5.0526   -1.7949 C   0  0  0  0  0  0  0  0  0  0  0  0
    4.9743   -6.0111   -1.2849 O   0  0  0  0  0  0  0  0  0  0  0  0
    3.3398   -4.1684    0.1300 F   0  0  0  0  0  0  0  0  0  0  0  0
  1  2  1  0  0  0  0
  2  3  2  0  0  0  0
  3  4  1  0  0  0  0
  3 52  1  0  0  0  0
  4  5  1  0  0  0  0
  5  6  1  1  0  0  0
  5 49  1  0  0  0  0
  6  7  1  0  0  0  0
  7  8  2  0  0  0  0
  7 12  1  0  0  0  0
  8  9  1  0  0  0  0
  8 26  1  0  0  0  0
  9 10  1  0  0  0  0
 10 11  2  0  0  0  0
 10 21  1  0  0  0  0
 11 12  1  0  0  0  0
 11 13  1  0  0  0  0
 13 14  1  0  0  0  0
 13 19  2  0  0  0  0
 14 15  1  0  0  0  0
 15 16  2  0  0  0  0
 15 17  1  0  0  0  0
 17 18  1  0  0  0  0
 18 19  1  0  0  0  0
 18 25  1  0  0  0  0
 19 20  1  0  0  0  0
 20 21  2  0  0  0  0
 20 22  1  0  0  0  0
 22 23  1  0  0  0  0
 22 24  1  0  0  0  0
 23 24  1  0  0  0  0
 26 27  2  0  0  0  0
 26 32  1  0  0  0  0
 27 28  1  0  0  0  0
 28 29  1  0  0  0  0
 28 30  2  0  0  0  0
 30 31  1  0  0  0  0
 31 32  2  0  0  0  0
 31 42  1  0  0  0  0
 32 33  1  0  0  0  0
 33 34  2  0  0  0  0
 34 35  1  0  0  0  0
 34 41  1  0  0  0  0
 35 36  2  0  0  0  0
 35 37  1  0  0  0  0
 37 38  2  0  0  0  0
 39 37  1  6  0  0  0
 39 40  1  0  0  0  0
 39 44  1  0  0  0  0
 40 41  1  0  0  0  0
 41 42  2  0  0  0  0
 42 43  1  0  0  0  0
 44 45  1  6  0  0  0
 44 46  1  0  0  0  0
 44 47  1  0  0  0  0
 46 47  1  0  0  0  0
 47 48  2  0  0  0  0
 49 50  2  0  0  0  0
 49 51  1  0  0  0  0
 51 52  1  0  0  0  0
 51 54  1  0  0  0  0
 52 53  2  0  0  0  0
M  END
$$$$