
 OpenBabel11212020413D

 54 62  0  0  1  0  0  0  0  0999 V2000
   -1.1430   -0.3933   -5.9679 O   0  0  0  0  0  0  0  0  0  0  0  0
   -0.9316    0.0849   -4.6986 C   0  0  0  0  0  0  0  0  0  0  0  0
   -0.3253   -0.6330   -3.7482 C   0  0  0  0  0  0  0  0  0  0  0  0
    0.0931   -1.9250   -4.0030 O   0  0  0  0  0  0  0  0  0  0  0  0
    1.3568   -2.2023   -3.4239 C   0  0  2  0  0  0  0  0  0  0  0  0
    1.7731   -3.5264   -3.7868 O   0  0  0  0  0  0  0  0  0  0  0  0
    1.9185   -3.8411   -5.1248 C   0  0  0  0  0  0  0  0  0  0  0  0
    1.6734   -5.0932   -5.5685 C   0  0  0  0  0  0  0  0  0  0  0  0
    1.9131   -5.4607   -6.8925 O   0  0  0  0  0  0  0  0  0  0  0  0
    2.3249   -4.5224   -7.8277 C   0  0  0  0  0  0  0  0  0  0  0  0
    2.6138   -3.2616   -7.4612 C   0  0  0  0  0  0  0  0  0  0  0  0
    2.4603   -2.7833   -6.0474 C   0  0  0  0  0  0  0  0  0  0  0  0
    3.0911   -2.2428   -8.4518 C   0  0  3  0  0  0  0  0  0  0  0  0
    4.3980   -1.8540   -8.0720 O   0  0  0  0  0  0  0  0  0  0  0  0
    4.9770   -0.8978   -8.8521 C   0  0  0  0  0  0  0  0  0  0  0  0
    5.9336   -0.2512   -8.4696 O   0  0  0  0  0  0  0  0  0  0  0  0
    4.3710   -0.6950  -10.0494 O   0  0  0  0  0  0  0  0  0  0  0  0
    3.7785   -1.7900  -10.7372 C   0  0  3  0  0  0  0  0  0  0  0  0
    3.2229   -2.8107   -9.8113 C   0  0  0  0  0  0  0  0  0  0  0  0
    2.9020   -4.0865  -10.1177 C   0  0  0  0  0  0  0  0  0  0  0  0
    2.4350   -4.9414   -9.1347 O   0  3  0  0  0  0  0  0  0  0  0  0
    3.0455   -4.6735  -11.4690 C   0  0  0  0  0  0  0  0  0  0  0  0
    4.2470   -5.3574  -11.8458 O   0  0  0  0  0  0  0  0  0  0  0  0
    3.0304   -6.1016  -11.6443 O   0  0  0  0  0  0  0  0  0  0  0  0
    2.6534   -1.3184  -11.4517 O   0  0  0  0  0  0  0  0  0  0  0  0
    1.1392   -6.1882   -4.6992 C   0  0  0  0  0  0  0  0  0  0  0  0
    1.4889   -6.2166   -3.3498 C   0  0  0  0  0  0  0  0  0  0  0  0
    0.9989   -7.1363   -2.5225 N   0  3  0  0  0  0  0  0  0  0  0  0
    1.3465   -7.0891   -1.2221 F   0  0  0  0  0  0  0  0  0  0  0  0
    0.1806   -8.0824   -2.9268 N   0  0  0  0  0  0  0  0  0  0  0  0
   -0.2137   -8.1374   -4.2060 C   0  0  0  0  0  0  0  0  0  0  0  0
    0.2631   -7.2061   -5.1538 C   0  0  0  0  0  0  0  0  0  0  0  0
   -0.1917   -7.3262   -6.4883 C   0  0  0  0  0  0  0  0  0  0  0  0
   -1.1257   -8.2854   -6.8703 C   0  0  0  0  0  0  0  0  0  0  0  0
   -1.6029   -8.3047   -8.2563 C   0  0  0  0  0  0  0  0  0  0  0  0
   -1.0857   -7.5897   -9.1025 O   0  0  0  0  0  0  0  0  0  0  0  0
   -2.7498   -9.2419   -8.5461 C   0  0  0  0  0  0  0  0  0  0  0  0
   -2.9540   -9.6314   -9.6839 O   0  0  0  0  0  0  0  0  0  0  0  0
   -3.5526   -9.6127   -7.3194 C   0  0  1  0  0  0  0  0  0  0  0  0
   -2.6987   -9.9853   -6.2161 O   0  0  0  0  0  0  0  0  0  0  0  0
   -1.6523   -9.1509   -5.9336 C   0  0  0  0  0  0  0  0  0  0  0  0
   -1.1498   -9.1048   -4.6225 C   0  0  0  0  0  0  0  0  0  0  0  0
   -1.8248  -10.3466   -3.3347 Br  0  0  0  0  0  0  0  0  0  0  0  0
   -4.5787   -8.5560   -6.9734 C   0  0  1  0  0  0  0  0  0  0  0  0
   -5.5559   -8.2798   -7.9933 O   0  0  0  0  0  0  0  0  0  0  0  0
   -5.0924   -8.6031   -5.6332 O   0  0  0  0  0  0  0  0  0  0  0  0
   -4.4115   -7.5101   -5.9809 C   0  0  0  0  0  0  0  0  0  0  0  0
   -3.4257   -6.9662   -5.5067 O   0  0  0  0  0  0  0  0  0  0  0  0
    1.2658   -2.1750   -1.9071 C   0  0  0  0  0  0  0  0  0  0  0  0
    1.7470   -3.0235   -1.1670 O   0  0  0  0  0  0  0  0  0  0  0  0
    0.4846   -0.9857   -1.3925 C   0  0  0  0  0  0  0  0  0  0  0  0
    0.3191   -0.8325   -0.1954 O   0  0  0  0  0  0  0  0  0  0  0  0
   -0.1223   -0.0256   -2.4008 C   0  0  0  0  0  0  0  0  0  0  0  0
   -0.3608    1.1364   -2.1323 O   0  0  0  0  0  0  0  0  0  0  0  0
  1  2  1  0  0  0  0
  2  3  2  0  0  0  0
  3  4  1  0  0  0  0
  3 53  1  0  0  0  0
  4  5  1  0  0  0  0
  5  6  1  1  0  0  0
  5 49  1  0  0  0  0
  6  7  1  0  0  0  0
  7  8  2  0  0  0  0
  7 12  1  0  0  0  0
  8  9  1  0  0  0  0
  8 26  1  0  0  0  0
  9 10  1  0  0  0  0
 10 11  2  0  0  0  0
 10 21  1  0  0  0  0
 11 12  1  0  0  0  0
 11 13  1  0  0  0  0
 13 14  1  0  0  0  0
 13 19  1  0  0  0  0
 14 15  1  0  0  0  0
 15 16  2  0  0  0  0
 15 17  1  0  0  0  0
 17 18  1  0  0  0  0
 18 19  1  0  0  0  0
 18 25  1  0  0  0  0
 19 20  2  0  0  0  0
 20 21  1  0  0  0  0
 20 22  1  0  0  0  0
 22 23  1  0  0  0  0
 22 24  1  0  0  0  0
 23 24  1  0  0  0  0
 26 27  2  0  0  0  0
 26 32  1  0  0  0  0
 27 28  1  0  0  0  0
 28 29  1  0  0  0  0
 28 30  2  0  0  0  0
 30 31  1  0  0  0  0
 31 32  2  0  0  0  0
 31 42  1  0  0  0  0
 32 33  1  0  0  0  0
 33 34  2  0  0  0  0
 34 35  1  0  0  0  0
 34 41  1  0  0  0  0
 35 36  2  0  0  0  0
 35 37  1  0  0  0  0
 37 38  2  0  0  0  0
 39 37  1  6  0  0  0
 39 40  1  0  0  0  0
 39 44  1  0  0  0  0
 40 41  1  0  0  0  0
 41 42  2  0  0  0  0
 42 43  1  0  0  0  0
 44 45  1  6  0  0  0
 44 46  1  0  0  0  0
 44 47  1  0  0  0  0
 46 47  1  0  0  0  0
 47 48  2  0  0  0  0
 49 50  2  0  0  0  0
 49 51  1  0  0  0  0
 51 52  2  0  0  0  0
 51 53  1  0  0  0  0
 53 54  2  0  0  0  0
M  CHG  2  21   1  28   1
M  END
$$$$