
 OpenBabel11262002103D

 54 62  0  0  1  0  0  0  0  0999 V2000
   -0.9379   -4.6672    7.7482 O   0  0  0  0  0  0  0  0  0  0  0  0
    0.0524   -5.4548    7.2182 C   0  0  0  0  0  0  0  0  0  0  0  0
    1.1953   -4.9475    6.7391 C   0  0  0  0  0  0  0  0  0  0  0  0
    1.4317   -3.5888    6.8079 O   0  0  0  0  0  0  0  0  0  0  0  0
    2.5037   -3.0477    6.0273 C   0  0  2  0  0  0  0  0  0  0  0  0
    2.0794   -2.6267    4.7097 O   0  0  0  0  0  0  0  0  0  0  0  0
    1.0864   -1.6503    4.6481 C   0  0  0  0  0  0  0  0  0  0  0  0
    0.2323   -1.5717    3.6010 C   0  0  0  0  0  0  0  0  0  0  0  0
   -0.7851   -0.6207    3.5054 O   0  0  0  0  0  0  0  0  0  0  0  0
   -1.0090    0.2378    4.5677 C   0  0  0  0  0  0  0  0  0  0  0  0
   -0.1614    0.2860    5.6477 C   0  0  0  0  0  0  0  0  0  0  0  0
    1.0233   -0.6138    5.7436 C   0  0  0  0  0  0  0  0  0  0  0  0
   -0.4756    1.1961    6.6522 C   0  0  0  0  0  0  0  0  0  0  0  0
    0.3553    1.2336    7.7824 O   0  0  0  0  0  0  0  0  0  0  0  0
    0.2828    2.2533    8.7296 C   0  0  0  0  0  0  0  0  0  0  0  0
    1.0910    2.3298    9.6461 O   0  0  0  0  0  0  0  0  0  0  0  0
   -0.6458    3.2107    8.5034 O   0  0  0  0  0  0  0  0  0  0  0  0
   -1.8281    2.8978    7.7744 C   0  0  3  0  0  0  0  0  0  0  0  0
   -1.5927    2.0098    6.6015 C   0  0  0  0  0  0  0  0  0  0  0  0
   -2.4417    1.8792    5.4948 C   0  0  0  0  0  0  0  0  0  0  0  0
   -2.1161    1.0134    4.4765 N   0  0  0  0  0  0  0  0  0  0  0  0
   -3.7550    2.6269    5.3175 C   0  0  0  0  0  0  0  0  0  0  0  0
   -4.7748    2.4183    6.3084 O   0  0  0  0  0  0  0  0  0  0  0  0
   -4.1256    3.6998    6.1946 O   0  0  0  0  0  0  0  0  0  0  0  0
   -2.7613    2.2835    8.6409 O   0  0  0  0  0  0  0  0  0  0  0  0
    0.3387   -2.4335    2.3938 C   0  0  0  0  0  0  0  0  0  0  0  0
    1.1235   -1.9545    1.3396 C   0  0  0  0  0  0  0  0  0  0  0  0
    1.2582   -2.7296    0.2081 C   0  0  0  0  0  0  0  0  0  0  0  0
    1.9993   -2.2640   -0.8070 F   0  0  0  0  0  0  0  0  0  0  0  0
    0.6898   -3.9345    0.0510 N   0  0  0  0  0  0  0  0  0  0  0  0
   -0.0803   -4.4117    1.0405 C   0  0  0  0  0  0  0  0  0  0  0  0
   -0.3124   -3.6888    2.2428 C   0  0  0  0  0  0  0  0  0  0  0  0
   -1.1882   -4.2478    3.2034 C   0  0  0  0  0  0  0  0  0  0  0  0
   -1.7682   -5.5057    2.9965 C   0  0  0  0  0  0  0  0  0  0  0  0
   -2.7045   -6.0767    3.9656 C   0  0  0  0  0  0  0  0  0  0  0  0
   -3.2925   -5.3868    4.7822 O   0  0  0  0  0  0  0  0  0  0  0  0
   -2.8657   -7.5799    3.9483 C   0  0  0  0  0  0  0  0  0  0  0  0
   -3.3029   -8.1677    4.9295 O   0  0  0  0  0  0  0  0  0  0  0  0
   -2.2791   -8.2823    2.7427 C   0  0  1  0  0  0  0  0  0  0  0  0
   -2.0506   -7.4541    1.5964 O   0  0  0  0  0  0  0  0  0  0  0  0
   -1.4951   -6.2326    1.8531 C   0  0  0  0  0  0  0  0  0  0  0  0
   -0.6798   -5.6627    0.8786 C   0  0  0  0  0  0  0  0  0  0  0  0
   -0.4656   -6.3550   -0.2547 F   0  0  0  0  0  0  0  0  0  0  0  0
   -1.0416   -9.0665    3.0767 C   0  0  1  0  0  0  0  0  0  0  0  0
   -0.4194   -9.7673    1.9732 O   0  0  0  0  0  0  0  0  0  0  0  0
   -0.1476   -8.4266    3.9859 O   0  0  0  0  0  0  0  0  0  0  0  0
   -0.7114   -9.5828    4.4108 C   0  0  0  0  0  0  0  0  0  0  0  0
   -0.1925  -10.6214    4.7358 O   0  0  0  0  0  0  0  0  0  0  0  0
    3.6655   -3.9792    5.8801 C   0  0  0  0  0  0  0  0  0  0  0  0
    3.5333   -5.3003    5.9671 C   0  0  0  0  0  0  0  0  0  0  0  0
    2.2165   -5.9048    6.2184 C   0  0  0  0  0  0  0  0  0  0  0  0
    1.9905   -7.0937    6.0322 O   0  0  0  0  0  0  0  0  0  0  0  0
    4.5761   -6.1384    5.8161 F   0  0  0  0  0  0  0  0  0  0  0  0
    4.9010   -3.4579    5.6997 F   0  0  0  0  0  0  0  0  0  0  0  0
  1  2  1  0  0  0  0
  2  3  2  0  0  0  0
  3  4  1  0  0  0  0
  3 51  1  0  0  0  0
  4  5  1  0  0  0  0
  5 49  1  0  0  0  0
  5  6  1  6  0  0  0
  6  7  1  0  0  0  0
  7  8  2  0  0  0  0
  7 12  1  0  0  0  0
  8  9  1  0  0  0  0
  8 26  1  0  0  0  0
  9 10  1  0  0  0  0
 10 11  2  0  0  0  0
 10 21  1  0  0  0  0
 11 12  1  0  0  0  0
 11 13  1  0  0  0  0
 13 14  1  0  0  0  0
 13 19  2  0  0  0  0
 14 15  1  0  0  0  0
 15 16  2  0  0  0  0
 15 17  1  0  0  0  0
 17 18  1  0  0  0  0
 18 19  1  0  0  0  0
 18 25  1  0  0  0  0
 19 20  1  0  0  0  0
 20 21  2  0  0  0  0
 20 22  1  0  0  0  0
 22 23  1  0  0  0  0
 22 24  1  0  0  0  0
 23 24  1  0  0  0  0
 26 27  2  0  0  0  0
 26 32  1  0  0  0  0
 27 28  1  0  0  0  0
 28 29  1  0  0  0  0
 28 30  2  0  0  0  0
 30 31  1  0  0  0  0
 31 32  2  0  0  0  0
 31 42  1  0  0  0  0
 32 33  1  0  0  0  0
 33 34  2  0  0  0  0
 34 35  1  0  0  0  0
 34 41  1  0  0  0  0
 35 36  2  0  0  0  0
 35 37  1  0  0  0  0
 37 38  2  0  0  0  0
 39 37  1  1  0  0  0
 39 40  1  0  0  0  0
 39 44  1  0  0  0  0
 40 41  1  0  0  0  0
 41 42  2  0  0  0  0
 42 43  1  0  0  0  0
 44 45  1  6  0  0  0
 44 46  1  0  0  0  0
 44 47  1  0  0  0  0
 46 47  1  0  0  0  0
 47 48  2  0  0  0  0
 49 50  2  0  0  0  0
 49 54  1  0  0  0  0
 50 51  1  0  0  0  0
 50 53  1  0  0  0  0
 51 52  2  0  0  0  0
M  END
$$$$