
 OpenBabel11152002193D

 52 60  0  0  1  0  0  0  0  0999 V2000
    6.0272    5.6159    2.6638 O   0  0  0  0  0  0  0  0  0  0  0  0
    5.2124    5.6375    1.5599 C   0  0  0  0  0  0  0  0  0  0  0  0
    4.1524    4.8321    1.4154 C   0  0  0  0  0  0  0  0  0  0  0  0
    3.8555    3.8779    2.3708 O   0  0  0  0  0  0  0  0  0  0  0  0
    2.4768    3.5665    2.5347 C   0  0  2  0  0  0  0  0  0  0  0  0
    2.3008    2.5169    3.5036 O   0  0  0  0  0  0  0  0  0  0  0  0
    2.7024    2.7897    4.8035 C   0  0  0  0  0  0  0  0  0  0  0  0
    3.1633    1.8162    5.6161 C   0  0  0  0  0  0  0  0  0  0  0  0
    3.5440    2.0460    6.9364 O   0  0  0  0  0  0  0  0  0  0  0  0
    3.3738    3.3034    7.4925 C   0  0  0  0  0  0  0  0  0  0  0  0
    2.8723    4.3284    6.7811 C   0  0  0  0  0  0  0  0  0  0  0  0
    2.5282    4.1908    5.3277 C   0  0  0  0  0  0  0  0  0  0  0  0
    2.6337    5.6782    7.3924 C   0  0  3  0  0  0  0  0  0  0  0  0
    1.2338    5.8995    7.3869 O   0  0  0  0  0  0  0  0  0  0  0  0
    0.7611    7.0292    7.9763 C   0  0  0  0  0  0  0  0  0  0  0  0
   -0.3735    7.4283    7.7741 O   0  0  0  0  0  0  0  0  0  0  0  0
    1.6226    7.6797    8.7954 O   0  0  0  0  0  0  0  0  0  0  0  0
    2.7747    7.0716    9.3654 C   0  0  3  0  0  0  0  0  0  0  0  0
    3.0557    5.7247    8.8102 C   0  0  0  0  0  0  0  0  0  0  0  0
    3.5864    4.6644    9.4592 C   0  0  0  0  0  0  0  0  0  0  0  0
    3.7338    3.4509    8.8079 O   0  3  0  0  0  0  0  0  0  0  0  0
    4.0202    4.6984   10.8736 C   0  0  0  0  0  0  0  0  0  0  0  0
    3.1278    4.3197   11.9280 O   0  0  0  0  0  0  0  0  0  0  0  0
    4.2487    3.4768   11.5975 O   0  0  0  0  0  0  0  0  0  0  0  0
    3.9066    7.8523    9.0370 O   0  0  0  0  0  0  0  0  0  0  0  0
    3.3256    0.4066    5.2134 C   0  0  0  0  0  0  0  0  0  0  0  0
    4.5360    0.1230    4.6914 N   0  0  0  0  0  0  0  0  0  0  0  0
    4.7615   -1.1665    4.4195 C   0  0  0  0  0  0  0  0  0  0  0  0
    3.9240   -2.1810    4.6723 N   0  0  0  0  0  0  0  0  0  0  0  0
    2.7390   -1.8858    5.2142 C   0  0  0  0  0  0  0  0  0  0  0  0
    2.3566   -0.5709    5.5053 C   0  0  0  0  0  0  0  0  0  0  0  0
    1.0856   -0.3336    6.0848 C   0  0  0  0  0  0  0  0  0  0  0  0
    0.2388   -1.4015    6.4065 C   0  0  0  0  0  0  0  0  0  0  0  0
    0.6235   -2.6994    6.1401 C   0  0  0  0  0  0  0  0  0  0  0  0
    1.8632   -2.9231    5.5305 C   0  0  0  0  0  0  0  0  0  0  0  0
   -0.1189   -3.8046    6.4040 O   0  0  0  0  0  0  0  0  0  0  0  0
   -1.2854   -3.6906    7.2182 C   0  0  2  0  0  0  0  0  0  0  0  0
   -1.7912   -2.3204    7.6232 C   0  0  0  0  0  0  0  0  0  0  0  0
   -2.7103   -2.1410    8.4122 O   0  0  0  0  0  0  0  0  0  0  0  0
   -1.0412   -1.1413    7.0593 C   0  0  0  0  0  0  0  0  0  0  0  0
   -1.4472    0.0001    7.2127 O   0  0  0  0  0  0  0  0  0  0  0  0
   -1.1071   -4.5922    8.4155 C   0  0  1  0  0  0  0  0  0  0  0  0
   -0.8831   -5.9924    8.1079 O   0  0  0  0  0  0  0  0  0  0  0  0
   -0.2710   -4.0354    9.4301 O   0  0  0  0  0  0  0  0  0  0  0  0
   -1.5423   -4.3215    9.7837 C   0  0  0  0  0  0  0  0  0  0  0  0
   -1.9370   -5.0871   10.6444 O   0  0  0  0  0  0  0  0  0  0  0  0
    1.8243    3.1563    1.2266 C   0  0  0  0  0  0  0  0  0  0  0  0
    1.1145    2.1839    1.0387 O   0  0  0  0  0  0  0  0  0  0  0  0
    2.0659    4.1756    0.1467 C   0  0  0  0  0  0  0  0  0  0  0  0
    1.1914    4.4158   -0.6687 O   0  0  0  0  0  0  0  0  0  0  0  0
    3.3441    4.9855    0.1699 C   0  0  0  0  0  0  0  0  0  0  0  0
    3.6460    5.7282   -0.7475 O   0  0  0  0  0  0  0  0  0  0  0  0
  1  2  1  0  0  0  0
  2  3  2  0  0  0  0
  3  4  1  0  0  0  0
  3 51  1  0  0  0  0
  4  5  1  0  0  0  0
  5  6  1  1  0  0  0
  5 47  1  0  0  0  0
  6  7  1  0  0  0  0
  7  8  2  0  0  0  0
  7 12  1  0  0  0  0
  8  9  1  0  0  0  0
  8 26  1  0  0  0  0
  9 10  1  0  0  0  0
 10 11  2  0  0  0  0
 10 21  1  0  0  0  0
 11 12  1  0  0  0  0
 11 13  1  0  0  0  0
 13 14  1  0  0  0  0
 13 19  1  0  0  0  0
 14 15  1  0  0  0  0
 15 16  2  0  0  0  0
 15 17  1  0  0  0  0
 17 18  1  0  0  0  0
 18 19  1  0  0  0  0
 18 25  1  0  0  0  0
 19 20  2  0  0  0  0
 20 21  1  0  0  0  0
 20 22  1  0  0  0  0
 22 23  1  0  0  0  0
 22 24  1  0  0  0  0
 23 24  1  0  0  0  0
 26 27  2  0  0  0  0
 26 31  1  0  0  0  0
 27 28  1  0  0  0  0
 28 29  2  0  0  0  0
 29 30  1  0  0  0  0
 30 31  2  0  0  0  0
 30 35  1  0  0  0  0
 31 32  1  0  0  0  0
 32 33  2  0  0  0  0
 33 34  1  0  0  0  0
 33 40  1  0  0  0  0
 34 35  2  0  0  0  0
 34 36  1  0  0  0  0
 37 36  1  1  0  0  0
 37 38  1  0  0  0  0
 37 42  1  0  0  0  0
 38 39  2  0  0  0  0
 38 40  1  0  0  0  0
 40 41  2  0  0  0  0
 42 43  1  6  0  0  0
 42 44  1  0  0  0  0
 42 45  1  0  0  0  0
 44 45  1  0  0  0  0
 45 46  2  0  0  0  0
 47 48  2  0  0  0  0
 47 49  1  0  0  0  0
 49 50  2  0  0  0  0
 49 51  1  0  0  0  0
 51 52  2  0  0  0  0
M  CHG  1  21   1
M  END
$$$$