
 OpenBabel11212014353D

 53 61  0  0  1  0  0  0  0  0999 V2000
    3.5001    2.3340   -2.7889 O   0  0  0  0  0  0  0  0  0  0  0  0
    2.1469    2.3286   -2.5664 C   0  0  0  0  0  0  0  0  0  0  0  0
    1.3793    1.2669   -2.8414 C   0  0  0  0  0  0  0  0  0  0  0  0
    1.9440    0.1319   -3.3883 O   0  0  0  0  0  0  0  0  0  0  0  0
    1.2674   -1.1024   -3.1897 C   0  0  2  0  0  0  0  0  0  0  0  0
    1.9373   -2.1877   -3.8676 O   0  0  0  0  0  0  0  0  0  0  0  0
    2.0299   -2.1732   -5.2538 C   0  0  0  0  0  0  0  0  0  0  0  0
    2.0426   -3.3211   -5.9639 C   0  0  0  0  0  0  0  0  0  0  0  0
    2.1532   -3.3587   -7.3509 O   0  0  0  0  0  0  0  0  0  0  0  0
    2.3600   -2.1759   -8.0615 C   0  0  0  0  0  0  0  0  0  0  0  0
    2.4188   -0.9860   -7.4324 C   0  0  0  0  0  0  0  0  0  0  0  0
    2.2112   -0.8554   -5.9533 C   0  0  0  0  0  0  0  0  0  0  0  0
    2.6981    0.2940   -8.1647 C   0  0  3  0  0  0  0  0  0  0  0  0
    3.9190    0.8083   -7.6658 O   0  0  0  0  0  0  0  0  0  0  0  0
    4.2780    2.0318   -8.1383 C   0  0  0  0  0  0  0  0  0  0  0  0
    5.0359    2.7669   -7.5302 O   0  0  0  0  0  0  0  0  0  0  0  0
    3.7039    2.3675   -9.3221 O   0  0  0  0  0  0  0  0  0  0  0  0
    3.3167    1.3647  -10.2759 C   0  0  0  0  0  0  0  0  0  0  0  0
    2.9139    0.0783   -9.6227 C   0  0  0  0  0  0  0  0  0  0  0  0
    2.8211   -1.1450  -10.2114 C   0  0  0  0  0  0  0  0  0  0  0  0
    2.5138   -2.2600   -9.4306 O   0  3  0  0  0  0  0  0  0  0  0  0
    2.4653   -3.5292  -10.0144 F   0  0  0  0  0  0  0  0  0  0  0  0
    3.0265   -1.3705  -11.6675 C   0  0  0  0  0  0  0  0  0  0  0  0
    3.5424   -2.6053  -12.1849 O   0  0  0  0  0  0  0  0  0  0  0  0
    2.1646   -2.2426  -12.4137 O   0  0  0  0  0  0  0  0  0  0  0  0
    1.9851   -4.6515   -5.3299 C   0  0  0  0  0  0  0  0  0  0  0  0
    3.1818   -5.2452   -4.9575 C   0  0  0  0  0  0  0  0  0  0  0  0
    3.2383   -6.4364   -4.3480 N   0  0  0  0  0  0  0  0  0  0  0  0
    2.0749   -7.0882   -4.0466 N   0  0  0  0  0  0  0  0  0  0  0  0
    0.8719   -6.5719   -4.3578 C   0  0  0  0  0  0  0  0  0  0  0  0
    0.7830   -5.3384   -5.0387 C   0  0  0  0  0  0  0  0  0  0  0  0
   -0.4961   -4.8470   -5.3875 C   0  0  0  0  0  0  0  0  0  0  0  0
   -1.6602   -5.5275   -5.0150 C   0  0  0  0  0  0  0  0  0  0  0  0
   -2.9717   -5.0092   -5.4098 C   0  0  0  0  0  0  0  0  0  0  0  0
   -3.0755   -4.0798   -6.1963 O   0  0  0  0  0  0  0  0  0  0  0  0
   -4.1885   -5.6955   -4.8323 C   0  0  0  0  0  0  0  0  0  0  0  0
   -5.3128   -5.3896   -5.2043 O   0  0  0  0  0  0  0  0  0  0  0  0
   -3.8935   -6.6916   -3.7349 C   0  0  1  0  0  0  0  0  0  0  0  0
   -2.6627   -7.4179   -3.8630 O   0  0  0  0  0  0  0  0  0  0  0  0
   -1.5807   -6.7041   -4.2951 C   0  0  0  0  0  0  0  0  0  0  0  0
   -0.3175   -7.2284   -4.0045 C   0  0  0  0  0  0  0  0  0  0  0  0
   -0.2447   -8.4256   -3.3263 O   0  0  0  0  0  0  0  0  0  0  0  0
   -3.9796   -6.0470   -2.3802 C   0  0  1  0  0  0  0  0  0  0  0  0
   -3.0992   -4.9321   -2.1238 O   0  0  0  0  0  0  0  0  0  0  0  0
   -5.2905   -5.8971   -1.8269 O   0  0  0  0  0  0  0  0  0  0  0  0
   -4.4866   -6.7971   -1.2391 C   0  0  0  0  0  0  0  0  0  0  0  0
   -4.6237   -7.9854   -1.0461 O   0  0  0  0  0  0  0  0  0  0  0  0
   -0.2136   -1.0301   -3.5358 C   0  0  0  0  0  0  0  0  0  0  0  0
   -0.8239   -1.8080   -4.2551 O   0  0  0  0  0  0  0  0  0  0  0  0
   -0.8943    0.1643   -2.9315 C   0  0  0  0  0  0  0  0  0  0  0  0
   -2.0925    0.1192   -2.7037 O   0  0  0  0  0  0  0  0  0  0  0  0
   -0.0871    1.4031   -2.6175 C   0  0  0  0  0  0  0  0  0  0  0  0
   -0.6257    2.4326   -2.2464 O   0  0  0  0  0  0  0  0  0  0  0  0
  1  2  1  0  0  0  0
  2  3  2  0  0  0  0
  3  4  1  0  0  0  0
  3 52  1  0  0  0  0
  4  5  1  0  0  0  0
  5  6  1  6  0  0  0
  5 48  1  0  0  0  0
  6  7  1  0  0  0  0
  7  8  2  0  0  0  0
  7 12  1  0  0  0  0
  8  9  1  0  0  0  0
  8 26  1  0  0  0  0
  9 10  1  0  0  0  0
 10 11  2  0  0  0  0
 10 21  1  0  0  0  0
 11 12  1  0  0  0  0
 11 13  1  0  0  0  0
 13 14  1  0  0  0  0
 13 19  1  0  0  0  0
 14 15  1  0  0  0  0
 15 16  2  0  0  0  0
 15 17  1  0  0  0  0
 17 18  1  0  0  0  0
 18 19  1  0  0  0  0
 19 20  2  0  0  0  0
 20 21  1  0  0  0  0
 20 23  1  0  0  0  0
 21 22  1  0  0  0  0
 23 24  1  0  0  0  0
 23 25  1  0  0  0  0
 24 25  1  0  0  0  0
 26 27  2  0  0  0  0
 26 31  1  0  0  0  0
 27 28  1  0  0  0  0
 28 29  2  0  0  0  0
 29 30  1  0  0  0  0
 30 31  2  0  0  0  0
 30 41  1  0  0  0  0
 31 32  1  0  0  0  0
 32 33  2  0  0  0  0
 33 34  1  0  0  0  0
 33 40  1  0  0  0  0
 34 35  2  0  0  0  0
 34 36  1  0  0  0  0
 36 37  2  0  0  0  0
 38 36  1  6  0  0  0
 38 39  1  0  0  0  0
 38 43  1  0  0  0  0
 39 40  1  0  0  0  0
 40 41  2  0  0  0  0
 41 42  1  0  0  0  0
 43 44  1  1  0  0  0
 43 45  1  0  0  0  0
 43 46  1  0  0  0  0
 45 46  1  0  0  0  0
 46 47  2  0  0  0  0
 48 49  2  0  0  0  0
 48 50  1  0  0  0  0
 50 51  2  0  0  0  0
 50 52  1  0  0  0  0
 52 53  2  0  0  0  0
M  CHG  1  21   1
M  END
$$$$