
 OpenBabel11242002473D

 54 62  0  0  1  0  0  0  0  0999 V2000
   -1.4069    3.9485   -4.3577 S   0  0  0  0  0  0  0  0  0  0  0  0
   -1.1175    2.5012   -3.4480 C   0  0  0  0  0  0  0  0  0  0  0  0
    0.0167    2.2830   -2.7599 C   0  0  0  0  0  0  0  0  0  0  0  0
    1.0646    3.1927   -2.7863 O   0  0  0  0  0  0  0  0  0  0  0  0
    1.9983    3.1653   -1.7206 C   0  0  2  0  0  0  0  0  0  0  0  0
    3.2142    3.8672   -2.0522 O   0  0  0  0  0  0  0  0  0  0  0  0
    3.2268    5.2042   -2.3905 C   0  0  0  0  0  0  0  0  0  0  0  0
    4.3964    5.7696   -2.7496 C   0  0  0  0  0  0  0  0  0  0  0  0
    4.5249    7.1103   -3.0983 O   0  0  0  0  0  0  0  0  0  0  0  0
    3.4270    7.9616   -2.9544 C   0  0  0  0  0  0  0  0  0  0  0  0
    2.2250    7.4973   -2.5578 C   0  0  0  0  0  0  0  0  0  0  0  0
    1.9674    6.0288   -2.3187 C   0  0  0  0  0  0  0  0  0  0  0  0
    1.0579    8.4244   -2.3311 C   0  0  3  0  0  0  0  0  0  0  0  0
    0.6784    8.3037   -0.9707 O   0  0  0  0  0  0  0  0  0  0  0  0
   -0.3944    9.0545   -0.5868 C   0  0  0  0  0  0  0  0  0  0  0  0
   -0.9947    8.8356    0.4469 O   0  0  0  0  0  0  0  0  0  0  0  0
   -0.7427   10.0271   -1.4668 O   0  0  0  0  0  0  0  0  0  0  0  0
    0.2955   10.7355   -2.1286 C   0  0  3  0  0  0  0  0  0  0  0  0
    1.4350    9.8499   -2.5036 C   0  0  0  0  0  0  0  0  0  0  0  0
    2.6575   10.2435   -2.9240 C   0  0  0  0  0  0  0  0  0  0  0  0
    3.6305    9.2988   -3.2088 O   0  3  0  0  0  0  0  0  0  0  0  0
    3.0643   11.6551   -3.1397 C   0  0  0  0  0  0  0  0  0  0  0  0
    4.4192   11.9591   -3.5282 O   0  0  0  0  0  0  0  0  0  0  0  0
    3.3368   12.1457   -4.4585 O   0  0  0  0  0  0  0  0  0  0  0  0
   -0.1952   11.2360   -3.3527 O   0  0  0  0  0  0  0  0  0  0  0  0
    5.6588    4.9960   -2.7561 C   0  0  0  0  0  0  0  0  0  0  0  0
    6.4176    4.9620   -1.5886 C   0  0  0  0  0  0  0  0  0  0  0  0
    7.5570    4.2634   -1.5330 N   0  3  0  0  0  0  0  0  0  0  0  0
    8.2701    4.2591   -0.3902 F   0  0  0  0  0  0  0  0  0  0  0  0
    8.0227    3.5846   -2.5629 N   0  0  0  0  0  0  0  0  0  0  0  0
    7.3176    3.5333   -3.6973 C   0  0  0  0  0  0  0  0  0  0  0  0
    6.1012    4.2263   -3.8501 C   0  0  0  0  0  0  0  0  0  0  0  0
    5.3957    4.0976   -5.0693 C   0  0  0  0  0  0  0  0  0  0  0  0
    5.8864    3.2883   -6.1038 C   0  0  0  0  0  0  0  0  0  0  0  0
    5.1386    3.1610   -7.3591 C   0  0  0  0  0  0  0  0  0  0  0  0
    4.1437    3.8405   -7.5538 O   0  0  0  0  0  0  0  0  0  0  0  0
    5.6746    2.1801   -8.3804 C   0  0  0  0  0  0  0  0  0  0  0  0
    5.2775    2.2015   -9.5346 O   0  0  0  0  0  0  0  0  0  0  0  0
    6.6798    1.1952   -7.8270 C   0  0  1  0  0  0  0  0  0  0  0  0
    7.6124    1.7818   -6.9026 O   0  0  0  0  0  0  0  0  0  0  0  0
    7.0793    2.6051   -5.9516 C   0  0  0  0  0  0  0  0  0  0  0  0
    7.7877    2.7607   -4.7598 C   0  0  0  0  0  0  0  0  0  0  0  0
    8.9581    2.1186   -4.6155 F   0  0  0  0  0  0  0  0  0  0  0  0
    5.9983    0.0201   -7.2014 C   0  0  1  0  0  0  0  0  0  0  0  0
    5.1343    0.2931   -6.0643 O   0  0  0  0  0  0  0  0  0  0  0  0
    5.5333   -0.9701   -8.1074 O   0  0  0  0  0  0  0  0  0  0  0  0
    6.5208   -1.3481   -7.2702 C   0  0  0  0  0  0  0  0  0  0  0  0
    6.5183   -2.1886   -6.3955 O   0  0  0  0  0  0  0  0  0  0  0  0
    2.4722    1.7644   -1.3970 C   0  0  0  0  0  0  0  0  0  0  0  0
    3.6335    1.3872   -1.3323 O   0  0  0  0  0  0  0  0  0  0  0  0
    1.3168    0.8546   -1.1342 C   0  0  0  0  0  0  0  0  0  0  0  0
    1.3295    0.1406   -0.1474 O   0  0  0  0  0  0  0  0  0  0  0  0
    0.1057    0.9805   -2.0253 C   0  0  0  0  0  0  0  0  0  0  0  0
   -0.7094    0.0802   -2.1170 O   0  0  0  0  0  0  0  0  0  0  0  0
  1  2  1  0  0  0  0
  2  3  2  0  0  0  0
  3  4  1  0  0  0  0
  3 53  1  0  0  0  0
  4  5  1  0  0  0  0
  5  6  1  6  0  0  0
  5 49  1  0  0  0  0
  6  7  1  0  0  0  0
  7  8  2  0  0  0  0
  7 12  1  0  0  0  0
  8  9  1  0  0  0  0
  8 26  1  0  0  0  0
  9 10  1  0  0  0  0
 10 11  2  0  0  0  0
 10 21  1  0  0  0  0
 11 12  1  0  0  0  0
 11 13  1  0  0  0  0
 13 14  1  0  0  0  0
 13 19  1  0  0  0  0
 14 15  1  0  0  0  0
 15 16  2  0  0  0  0
 15 17  1  0  0  0  0
 17 18  1  0  0  0  0
 18 19  1  0  0  0  0
 18 25  1  0  0  0  0
 19 20  2  0  0  0  0
 20 21  1  0  0  0  0
 20 22  1  0  0  0  0
 22 23  1  0  0  0  0
 22 24  1  0  0  0  0
 23 24  1  0  0  0  0
 26 27  2  0  0  0  0
 26 32  1  0  0  0  0
 27 28  1  0  0  0  0
 28 29  1  0  0  0  0
 28 30  2  0  0  0  0
 30 31  1  0  0  0  0
 31 32  2  0  0  0  0
 31 42  1  0  0  0  0
 32 33  1  0  0  0  0
 33 34  2  0  0  0  0
 34 35  1  0  0  0  0
 34 41  1  0  0  0  0
 35 36  2  0  0  0  0
 35 37  1  0  0  0  0
 37 38  2  0  0  0  0
 39 37  1  1  0  0  0
 39 40  1  0  0  0  0
 39 44  1  0  0  0  0
 40 41  1  0  0  0  0
 41 42  2  0  0  0  0
 42 43  1  0  0  0  0
 44 45  1  1  0  0  0
 44 46  1  0  0  0  0
 44 47  1  0  0  0  0
 46 47  1  0  0  0  0
 47 48  2  0  0  0  0
 49 50  2  0  0  0  0
 49 51  1  0  0  0  0
 51 52  2  0  0  0  0
 51 53  1  0  0  0  0
 53 54  2  0  0  0  0
M  CHG  2  21   1  28   1
M  END
$$$$