
 OpenBabel05082117453D

 51 61  0  0  1  0  0  0  0  0999 V2000
    5.1139    2.7468   -3.1122 F   0  0  0  0  0  0  0  0  0  0  0  0
    6.1579    1.9144   -3.0055 C   0  0  0  0  0  0  0  0  0  0  0  0
    7.3456    2.2369   -3.6344 C   0  0  0  0  0  0  0  0  0  0  0  0
    8.3894    1.3353   -3.5445 C   0  0  0  0  0  0  0  0  0  0  0  0
    9.5408    1.6087   -4.1751 F   0  0  0  0  0  0  0  0  0  0  0  0
    8.2538    0.1358   -2.8339 C   0  0  0  0  0  0  0  0  0  0  0  0
    7.0788   -0.1946   -2.1235 C   0  0  0  0  0  0  0  0  0  0  0  0
    6.0195    0.7331   -2.2629 C   0  0  0  0  0  0  0  0  0  0  0  0
    6.9140   -1.4504   -1.3051 C   0  0  0  0  0  0  0  0  0  0  0  0
    5.6524   -2.0592   -1.1993 C   0  0  0  0  0  0  0  0  0  0  0  0
    5.4404   -3.2656   -0.4980 C   0  0  0  0  0  0  0  0  0  0  0  0
    6.4769   -3.9692    0.1475 C   0  0  0  0  0  0  0  0  0  0  0  0
    7.7596   -3.3740    0.0933 C   0  0  0  0  0  0  0  0  0  0  0  0
    7.9408   -2.1371   -0.6156 C   0  0  0  0  0  0  0  0  0  0  0  0
    9.3287   -1.6295   -0.5592 C   0  0  0  0  0  0  0  0  0  0  0  0
    9.5723   -0.4600   -0.2718 O   0  0  0  0  0  0  0  0  0  0  0  0
   10.4114   -2.7106   -0.7344 C   0  0  1  0  0  0  0  0  0  0  0  0
   10.2621   -3.4948    0.5674 C   0  0  2  0  0  0  0  0  0  0  0  0
    8.8529   -4.0429    0.7115 C   0  0  0  0  0  0  0  0  0  0  0  0
    8.6808   -5.2495    1.3755 C   0  0  0  0  0  0  0  0  0  0  0  0
    7.4172   -5.8178    1.4252 C   0  0  0  0  0  0  0  0  0  0  0  0
    6.2806   -5.2334    0.8102 C   0  0  0  0  0  0  0  0  0  0  0  0
    4.8586   -6.0122    0.8253 C   0  0  0  0  0  0  0  0  0  0  0  0
    4.6561   -7.1053    2.2283 C   0  0  0  0  0  0  0  0  0  0  0  0
    4.7791   -7.7470    1.1670 C   0  0  0  0  0  0  0  0  0  0  0  0
    4.9712   -7.5704   -0.0629 C   0  0  0  0  0  0  0  0  0  0  0  0
    9.6946   -5.9919    1.9149 O   0  0  0  0  0  0  0  0  0  0  0  0
   11.0289   -5.4839    1.8018 C   0  0  2  0  0  0  0  0  0  0  0  0
   11.2716   -4.6233    0.5645 C   0  0  1  0  0  0  0  0  0  0  0  0
   11.1489   -5.4129   -0.7173 C   0  0  0  0  0  0  0  0  0  0  0  0
   10.6373   -4.8043   -1.8677 C   0  0  0  0  0  0  0  0  0  0  0  0
   10.2018   -3.5031   -1.9105 O   0  0  0  0  0  0  0  0  0  0  0  0
   10.4901   -5.5578   -3.0290 C   0  0  0  0  0  0  0  0  0  0  0  0
   10.8760   -6.9033   -3.0507 C   0  0  0  0  0  0  0  0  0  0  0  0
   11.4145   -7.5188   -1.9084 C   0  0  0  0  0  0  0  0  0  0  0  0
   11.5381   -6.7698   -0.7240 C   0  0  0  0  0  0  0  0  0  0  0  0
   12.0326   -7.4073    0.4265 C   0  0  0  0  0  0  0  0  0  0  0  0
   11.9868   -6.6878    1.7234 C   0  0  0  0  0  0  0  0  0  0  0  0
   12.6585   -7.0606    2.6845 O   0  0  0  0  0  0  0  0  0  0  0  0
   12.5130   -8.7184    0.3820 C   0  0  0  0  0  0  0  0  0  0  0  0
   12.4340   -9.4539   -0.8026 C   0  0  0  0  0  0  0  0  0  0  0  0
   11.8231   -8.8659   -1.9150 C   0  0  0  0  0  0  0  0  0  0  0  0
   12.9904  -11.1576   -0.7692 S   0  3  0  0  0  0  0  0  0  0  0  0
   14.7537  -10.9499   -0.3958 C   0  0  0  0  0  0  0  0  0  0  0  0
   15.5123  -10.0857   -1.3893 C   0  0  0  0  0  0  0  0  0  0  0  0
   15.5186  -10.6959   -2.7842 C   0  0  0  0  0  0  0  0  0  0  0  0
   14.1157  -10.8301   -3.3572 C   0  0  0  0  0  0  0  0  0  0  0  0
   13.1675  -11.6504   -2.4953 C   0  0  0  0  0  0  0  0  0  0  0  0
   11.3414   -4.7225    2.9701 O   0  0  0  0  0  0  0  0  0  0  0  0
   11.7018   -2.1077   -0.7851 O   0  0  0  0  0  0  0  0  0  0  0  0
    9.2825   -0.7231   -2.8989 F   0  0  0  0  0  0  0  0  0  0  0  0
  1  2  1  0  0  0  0
  2  3  2  0  0  0  0
  2  8  1  0  0  0  0
  3  4  1  0  0  0  0
  4  5  1  0  0  0  0
  4  6  2  0  0  0  0
  6  7  1  0  0  0  0
  6 51  1  0  0  0  0
  7  8  2  0  0  0  0
  7  9  1  0  0  0  0
  9 10  2  0  0  0  0
  9 14  1  0  0  0  0
 10 11  1  0  0  0  0
 11 12  2  0  0  0  0
 12 13  1  0  0  0  0
 12 22  1  0  0  0  0
 13 14  2  0  0  0  0
 13 19  1  0  0  0  0
 14 15  1  0  0  0  0
 15 17  1  0  0  0  0
 15 16  2  0  0  0  0
 17 18  1  0  0  0  0
 17 32  1  0  0  0  0
 17 50  1  6  0  0  0
 18 19  1  1  0  0  0
 18 29  1  0  0  0  0
 19 20  2  0  0  0  0
 20 21  1  0  0  0  0
 20 27  1  0  0  0  0
 21 22  2  0  0  0  0
 22 23  1  0  0  0  0
 23 24  1  0  0  0  0
 23 26  1  0  0  0  0
 24 25  2  0  0  0  0
 25 26  2  0  0  0  0
 27 28  1  0  0  0  0
 28 29  1  0  0  0  0
 28 38  1  0  0  0  0
 28 49  1  1  0  0  0
 29 30  1  6  0  0  0
 30 31  2  0  0  0  0
 30 36  1  0  0  0  0
 31 32  1  0  0  0  0
 31 33  1  0  0  0  0
 33 34  2  0  0  0  0
 34 35  1  0  0  0  0
 35 36  2  0  0  0  0
 35 42  1  0  0  0  0
 36 37  1  0  0  0  0
 37 38  1  0  0  0  0
 37 40  2  0  0  0  0
 38 39  2  0  0  0  0
 40 41  1  0  0  0  0
 41 42  2  0  0  0  0
 41 43  1  0  0  0  0
 43 44  1  0  0  0  0
 43 48  1  0  0  0  0
 44 45  1  0  0  0  0
 45 46  1  0  0  0  0
 46 47  1  0  0  0  0
 47 48  1  0  0  0  0
M  CHG  1  43   1
M  END
$$$$