
 OpenBabel09212012363D

 50 57  0  0  1  0  0  0  0  0999 V2000
   -0.4391   -0.5861   -4.9687 O   0  0  0  0  0  0  0  0  0  0  0  0
    0.2728   -0.0174   -3.8660 C   0  0  0  0  0  0  0  0  0  0  0  0
    0.3562   -1.0262   -2.7029 C   0  0  2  0  0  0  0  0  0  0  0  0
    1.0506   -2.1701   -3.1711 O   0  0  0  0  0  0  0  0  0  0  0  0
    1.1090   -3.2973   -2.3167 C   0  0  2  0  0  0  0  0  0  0  0  0
    1.6695   -4.4878   -2.9335 O   0  0  0  0  0  0  0  0  0  0  0  0
    1.4007   -4.8065   -4.2602 C   0  0  0  0  0  0  0  0  0  0  0  0
    1.4315   -6.0756   -4.7316 C   0  0  0  0  0  0  0  0  0  0  0  0
    1.2579   -6.3888   -6.0900 O   0  0  0  0  0  0  0  0  0  0  0  0
    1.0462   -5.3808   -7.0158 C   0  0  0  0  0  0  0  0  0  0  0  0
    0.9504   -4.0568   -6.6372 C   0  0  0  0  0  0  0  0  0  0  0  0
    1.1390   -3.6815   -5.2158 C   0  0  0  0  0  0  0  0  0  0  0  0
    0.6693   -3.0950   -7.6190 C   0  0  0  0  0  0  0  0  0  0  0  0
    0.5234   -1.7391   -7.2877 N   0  0  0  0  0  0  0  0  0  0  0  0
    0.0785   -0.7743   -8.1503 C   0  0  0  0  0  0  0  0  0  0  0  0
   -0.0406    0.3962   -7.7830 O   0  0  0  0  0  0  0  0  0  0  0  0
   -0.2552   -1.2071   -9.4129 N   0  0  0  0  0  0  0  0  0  0  0  0
    0.3460   -2.4034   -9.9874 C   0  0  0  0  0  0  0  0  0  0  0  0
    0.5419   -3.4611   -8.9482 C   0  0  0  0  0  0  0  0  0  0  0  0
    0.7204   -4.7996   -9.2177 C   0  0  0  0  0  0  0  0  0  0  0  0
    0.9470   -5.7704   -8.3067 N   0  0  0  0  0  0  0  0  0  0  0  0
    0.7161   -5.2521  -10.4958 O   0  0  0  0  0  0  0  0  0  0  0  0
   -0.4525   -0.1747  -10.3662 O   0  0  0  0  0  0  0  0  0  0  0  0
    1.5001   -7.3002   -3.8836 C   0  0  0  0  0  0  0  0  0  0  0  0
    0.2643   -7.7399   -3.5190 N   0  0  0  0  0  0  0  0  0  0  0  0
    0.1691   -8.9417   -2.9151 C   0  0  0  0  0  0  0  0  0  0  0  0
    1.2451   -9.7762   -2.6854 C   0  0  0  0  0  0  0  0  0  0  0  0
    2.5174   -9.3486   -3.0635 C   0  0  0  0  0  0  0  0  0  0  0  0
    2.6811   -8.0587   -3.6358 C   0  0  0  0  0  0  0  0  0  0  0  0
    4.0076   -7.6513   -3.9121 C   0  0  0  0  0  0  0  0  0  0  0  0
    5.1005   -8.5203   -3.7062 C   0  0  0  0  0  0  0  0  0  0  0  0
    4.9093   -9.8165   -3.2508 C   0  0  0  0  0  0  0  0  0  0  0  0
    3.6213  -10.2108   -2.8938 C   0  0  0  0  0  0  0  0  0  0  0  0
    5.8889  -10.7535   -3.0857 O   0  0  0  0  0  0  0  0  0  0  0  0
    7.1695  -10.4813   -3.6578 C   0  0  2  0  0  0  0  0  0  0  0  0
    7.5925   -9.0343   -3.7555 C   0  0  0  0  0  0  0  0  0  0  0  0
    8.7606   -8.6651   -3.7513 O   0  0  0  0  0  0  0  0  0  0  0  0
    6.4683   -8.0391   -3.9172 C   0  0  0  0  0  0  0  0  0  0  0  0
    6.7015   -6.8655   -4.1663 O   0  0  0  0  0  0  0  0  0  0  0  0
    7.3268  -11.1728   -4.9917 C   0  0  1  0  0  0  0  0  0  0  0  0
    6.3618  -10.7945   -6.0095 O   0  0  0  0  0  0  0  0  0  0  0  0
    8.6811  -11.2674   -5.4269 O   0  0  0  0  0  0  0  0  0  0  0  0
    8.0085  -12.4353   -5.1869 C   0  0  0  0  0  0  0  0  0  0  0  0
    7.7739  -13.3599   -5.9339 O   0  0  0  0  0  0  0  0  0  0  0  0
   -0.1654   -3.6888   -1.5783 C   0  0  0  0  0  0  0  0  0  0  0  0
   -0.2821   -4.6813   -0.8705 O   0  0  0  0  0  0  0  0  0  0  0  0
   -1.2811   -2.6792   -1.6626 C   0  0  0  0  0  0  0  0  0  0  0  0
   -2.3891   -2.9748   -1.2348 O   0  0  0  0  0  0  0  0  0  0  0  0
   -1.0453   -1.2855   -2.1896 C   0  0  0  0  0  0  0  0  0  0  0  0
   -1.9108   -0.4260   -2.0867 O   0  0  0  0  0  0  0  0  0  0  0  0
  1  2  1  0  0  0  0
  3  4  1  0  0  0  0
  3 49  1  0  0  0  0
  3  2  1  6  0  0  0
  4  5  1  0  0  0  0
  5  6  1  6  0  0  0
  5 45  1  0  0  0  0
  6  7  1  0  0  0  0
  7  8  2  0  0  0  0
  7 12  1  0  0  0  0
  8  9  1  0  0  0  0
  8 24  1  0  0  0  0
  9 10  1  0  0  0  0
 10 11  2  0  0  0  0
 10 21  1  0  0  0  0
 11 12  1  0  0  0  0
 11 13  1  0  0  0  0
 13 14  1  0  0  0  0
 13 19  2  0  0  0  0
 14 15  1  0  0  0  0
 15 16  2  0  0  0  0
 15 17  1  0  0  0  0
 17 18  1  0  0  0  0
 17 23  1  0  0  0  0
 18 19  1  0  0  0  0
 19 20  1  0  0  0  0
 20 21  2  0  0  0  0
 20 22  1  0  0  0  0
 24 25  2  0  0  0  0
 24 29  1  0  0  0  0
 25 26  1  0  0  0  0
 26 27  2  0  0  0  0
 27 28  1  0  0  0  0
 28 29  2  0  0  0  0
 28 33  1  0  0  0  0
 29 30  1  0  0  0  0
 30 31  2  0  0  0  0
 31 32  1  0  0  0  0
 31 38  1  0  0  0  0
 32 33  2  0  0  0  0
 32 34  1  0  0  0  0
 35 34  1  6  0  0  0
 35 36  1  0  0  0  0
 35 40  1  0  0  0  0
 36 37  2  0  0  0  0
 36 38  1  0  0  0  0
 38 39  2  0  0  0  0
 40 41  1  6  0  0  0
 40 42  1  0  0  0  0
 40 43  1  0  0  0  0
 42 43  1  0  0  0  0
 43 44  2  0  0  0  0
 45 46  2  0  0  0  0
 45 47  1  0  0  0  0
 47 48  2  0  0  0  0
 47 49  1  0  0  0  0
 49 50  2  0  0  0  0
M  END
$$$$