
 OpenBabel10272000253D

 51 59  0  0  1  0  0  0  0  0999 V2000
    3.6412    8.2828   -1.1526 O   0  0  0  0  0  0  0  0  0  0  0  0
    2.8789    7.5480   -2.0238 C   0  0  0  0  0  0  0  0  0  0  0  0
    2.3898    6.3415   -1.7151 C   0  0  0  0  0  0  0  0  0  0  0  0
    2.6665    5.7611   -0.4904 O   0  0  0  0  0  0  0  0  0  0  0  0
    1.6833    4.8334   -0.0295 C   0  0  2  0  0  0  0  0  0  0  0  0
    1.9913    4.3640    1.2891 O   0  0  0  0  0  0  0  0  0  0  0  0
    2.0812    5.3455    2.2727 C   0  0  0  0  0  0  0  0  0  0  0  0
    2.8923    5.2046    3.3429 C   0  0  0  0  0  0  0  0  0  0  0  0
    2.9558    6.1601    4.3535 O   0  0  0  0  0  0  0  0  0  0  0  0
    2.0228    7.1762    4.4181 C   0  0  0  0  0  0  0  0  0  0  0  0
    1.1376    7.3842    3.4312 C   0  0  0  0  0  0  0  0  0  0  0  0
    1.1447    6.5360    2.1947 C   0  0  0  0  0  0  0  0  0  0  0  0
    0.1125    8.4720    3.5271 C   0  0  3  0  0  0  0  0  0  0  0  0
   -1.1740    7.8666    3.4556 O   0  0  0  0  0  0  0  0  0  0  0  0
   -2.2612    8.6709    3.5648 C   0  0  0  0  0  0  0  0  0  0  0  0
   -3.3679    8.3099    3.1917 O   0  0  0  0  0  0  0  0  0  0  0  0
   -2.0393    9.9089    4.0745 O   0  0  0  0  0  0  0  0  0  0  0  0
   -0.9147   10.2183    4.9142 C   0  0  0  0  0  0  0  0  0  0  0  0
    0.1715    9.2144    4.8072 C   0  0  0  0  0  0  0  0  0  0  0  0
    1.0950    8.9574    5.7560 C   0  0  0  0  0  0  0  0  0  0  0  0
    2.0462    7.9581    5.5608 O   0  0  0  0  0  0  0  0  0  0  0  0
    1.1935    9.6794    7.0414 C   0  0  0  0  0  0  0  0  0  0  0  0
    2.4566    9.9328    7.6787 O   0  0  0  0  0  0  0  0  0  0  0  0
    1.7018   11.0214    7.1119 O   0  0  0  0  0  0  0  0  0  0  0  0
    3.7176    4.0250    3.6825 C   0  0  0  0  0  0  0  0  0  0  0  0
    3.3965    3.5255    4.9021 N   0  0  0  0  0  0  0  0  0  0  0  0
    4.1520    2.5336    5.3684 C   0  0  0  0  0  0  0  0  0  0  0  0
    5.2016    1.9967    4.7453 N   0  0  0  0  0  0  0  0  0  0  0  0
    5.4991    2.4795    3.5388 C   0  0  0  0  0  0  0  0  0  0  0  0
    4.7809    3.5174    2.9161 C   0  0  0  0  0  0  0  0  0  0  0  0
    5.1840    3.9494    1.6256 C   0  0  0  0  0  0  0  0  0  0  0  0
    6.2314    3.3049    0.9614 C   0  0  0  0  0  0  0  0  0  0  0  0
    6.9297    2.2824    1.5882 C   0  0  0  0  0  0  0  0  0  0  0  0
    6.5775    1.9071    2.8817 C   0  0  0  0  0  0  0  0  0  0  0  0
    7.9532    1.5791    1.0181 O   0  0  0  0  0  0  0  0  0  0  0  0
    7.9689    1.5513   -0.4179 C   0  0  2  0  0  0  0  0  0  0  0  0
    7.7184    2.8987   -1.0454 C   0  0  0  0  0  0  0  0  0  0  0  0
    8.3273    3.3479   -2.0056 O   0  0  0  0  0  0  0  0  0  0  0  0
    6.5731    3.6605   -0.4220 C   0  0  0  0  0  0  0  0  0  0  0  0
    5.9394    4.4858   -1.0615 O   0  0  0  0  0  0  0  0  0  0  0  0
    7.0178    0.5116   -0.9368 C   0  0  1  0  0  0  0  0  0  0  0  0
    5.6327    0.6287   -0.5561 O   0  0  0  0  0  0  0  0  0  0  0  0
    7.2077    0.0868   -2.2898 O   0  0  0  0  0  0  0  0  0  0  0  0
    7.5215   -0.7839   -1.3244 C   0  0  0  0  0  0  0  0  0  0  0  0
    8.5432   -1.3931   -1.1088 O   0  0  0  0  0  0  0  0  0  0  0  0
    1.6173    3.6822   -1.0188 C   0  0  0  0  0  0  0  0  0  0  0  0
    1.7639    2.4933   -0.7805 O   0  0  0  0  0  0  0  0  0  0  0  0
    1.3173    4.1729   -2.4145 C   0  0  0  0  0  0  0  0  0  0  0  0
    0.8393    3.4193   -3.2471 O   0  0  0  0  0  0  0  0  0  0  0  0
    1.5799    5.6302   -2.7438 C   0  0  0  0  0  0  0  0  0  0  0  0
    1.1179    6.1609   -3.7400 O   0  0  0  0  0  0  0  0  0  0  0  0
  1  2  1  0  0  0  0
  2  3  2  0  0  0  0
  3  4  1  0  0  0  0
  3 50  1  0  0  0  0
  4  5  1  0  0  0  0
  5  6  1  1  0  0  0
  5 46  1  0  0  0  0
  6  7  1  0  0  0  0
  7  8  2  0  0  0  0
  7 12  1  0  0  0  0
  8  9  1  0  0  0  0
  8 25  1  0  0  0  0
  9 10  1  0  0  0  0
 10 11  2  0  0  0  0
 10 21  1  0  0  0  0
 11 12  1  0  0  0  0
 11 13  1  0  0  0  0
 13 14  1  0  0  0  0
 13 19  1  0  0  0  0
 14 15  1  0  0  0  0
 15 16  2  0  0  0  0
 15 17  1  0  0  0  0
 17 18  1  0  0  0  0
 18 19  1  0  0  0  0
 19 20  2  0  0  0  0
 20 21  1  0  0  0  0
 20 22  1  0  0  0  0
 22 23  1  0  0  0  0
 22 24  1  0  0  0  0
 23 24  1  0  0  0  0
 25 26  2  0  0  0  0
 25 30  1  0  0  0  0
 26 27  1  0  0  0  0
 27 28  2  0  0  0  0
 28 29  1  0  0  0  0
 29 30  2  0  0  0  0
 29 34  1  0  0  0  0
 30 31  1  0  0  0  0
 31 32  2  0  0  0  0
 32 33  1  0  0  0  0
 32 39  1  0  0  0  0
 33 34  2  0  0  0  0
 33 35  1  0  0  0  0
 36 35  1  1  0  0  0
 36 37  1  0  0  0  0
 36 41  1  0  0  0  0
 37 38  2  0  0  0  0
 37 39  1  0  0  0  0
 39 40  2  0  0  0  0
 41 42  1  1  0  0  0
 41 43  1  0  0  0  0
 41 44  1  0  0  0  0
 43 44  1  0  0  0  0
 44 45  2  0  0  0  0
 46 47  2  0  0  0  0
 46 48  1  0  0  0  0
 48 49  2  0  0  0  0
 48 50  1  0  0  0  0
 50 51  2  0  0  0  0
M  END
$$$$