
 OpenBabel09262021313D

 52 60  0  0  1  0  0  0  0  0999 V2000
   -1.9091    1.0129    7.0813 O   0  0  0  0  0  0  0  0  0  0  0  0
   -2.1672    0.8402    5.7468 C   0  0  0  0  0  0  0  0  0  0  0  0
   -1.1973    0.7200    4.8333 C   0  0  0  0  0  0  0  0  0  0  0  0
    0.1362    0.7792    5.1963 O   0  0  0  0  0  0  0  0  0  0  0  0
    1.0001    0.0240    4.3439 C   0  0  2  0  0  0  0  0  0  0  0  0
    2.3333    0.0208    4.8579 O   0  0  0  0  0  0  0  0  0  0  0  0
    2.5375   -0.6068    6.0833 C   0  0  0  0  0  0  0  0  0  0  0  0
    3.5355   -0.2143    6.9059 C   0  0  0  0  0  0  0  0  0  0  0  0
    3.8417   -0.8589    8.1020 O   0  0  0  0  0  0  0  0  0  0  0  0
    3.2370   -2.0775    8.3806 C   0  0  0  0  0  0  0  0  0  0  0  0
    2.2392   -2.5527    7.6191 C   0  0  0  0  0  0  0  0  0  0  0  0
    1.7028   -1.8157    6.4384 C   0  0  0  0  0  0  0  0  0  0  0  0
    1.7183   -3.9142    7.9202 C   0  0  0  0  0  0  0  0  0  0  0  0
    0.7570   -4.4178    7.2178 N   0  0  0  0  0  0  0  0  0  0  0  0
    0.3337   -5.7054    7.4809 C   0  0  0  0  0  0  0  0  0  0  0  0
   -0.5785   -6.1589    6.8021 O   0  0  0  0  0  0  0  0  0  0  0  0
    0.8920   -6.5062    8.4587 N   0  0  0  0  0  0  0  0  0  0  0  0
    1.8490   -6.0286    9.1771 C   0  0  0  0  0  0  0  0  0  0  0  0
    2.3705   -4.6713    9.0135 C   0  0  0  0  0  0  0  0  0  0  0  0
    3.3582   -4.0990    9.7321 C   0  0  0  0  0  0  0  0  0  0  0  0
    3.7317   -2.7921    9.4436 N   0  0  0  0  0  0  0  0  0  0  0  0
    4.1213   -4.7665   10.8159 C   0  0  0  0  0  0  0  0  0  0  0  0
    5.3235   -5.5034   10.5408 O   0  0  0  0  0  0  0  0  0  0  0  0
    5.3921   -4.2632   11.2696 O   0  0  0  0  0  0  0  0  0  0  0  0
    4.4290    0.9141    6.5857 C   0  0  0  0  0  0  0  0  0  0  0  0
    5.5506    0.5525    5.9266 N   0  0  0  0  0  0  0  0  0  0  0  0
    6.3459    1.5515    5.5423 C   0  0  0  0  0  0  0  0  0  0  0  0
    6.1245    2.8526    5.7507 N   0  0  0  0  0  0  0  0  0  0  0  0
    5.0123    3.2036    6.4165 C   0  0  0  0  0  0  0  0  0  0  0  0
    4.1078    2.2464    6.9017 C   0  0  0  0  0  0  0  0  0  0  0  0
    2.9746    2.6649    7.6500 C   0  0  0  0  0  0  0  0  0  0  0  0
    2.7222    4.0243    7.8590 C   0  0  0  0  0  0  0  0  0  0  0  0
    1.5679    4.4612    8.6466 C   0  0  0  0  0  0  0  0  0  0  0  0
    0.9297    3.6779    9.3320 O   0  0  0  0  0  0  0  0  0  0  0  0
    1.1760    5.9190    8.5540 C   0  0  0  0  0  0  0  0  0  0  0  0
    0.1451    6.3168    9.0812 O   0  0  0  0  0  0  0  0  0  0  0  0
    2.0584    6.7721    7.6712 C   0  0  1  0  0  0  0  0  0  0  0  0
    3.4046    6.3255    7.4845 O   0  0  0  0  0  0  0  0  0  0  0  0
    3.5747    4.9771    7.3349 C   0  0  0  0  0  0  0  0  0  0  0  0
    4.7161    4.5562    6.6442 C   0  0  0  0  0  0  0  0  0  0  0  0
    5.5720    5.5222    6.1570 O   0  0  0  0  0  0  0  0  0  0  0  0
    1.4143    7.0152    6.3313 C   0  0  1  0  0  0  0  0  0  0  0  0
    1.1428    5.8451    5.5262 O   0  0  0  0  0  0  0  0  0  0  0  0
    0.4123    8.0230    6.2728 O   0  0  0  0  0  0  0  0  0  0  0  0
    1.5762    8.2910    5.6558 C   0  0  0  0  0  0  0  0  0  0  0  0
    2.3605    9.2103    5.8238 O   0  0  0  0  0  0  0  0  0  0  0  0
    0.9668    0.6330    2.9480 C   0  0  0  0  0  0  0  0  0  0  0  0
    1.9256    0.9467    2.2602 O   0  0  0  0  0  0  0  0  0  0  0  0
   -0.4473    0.7928    2.4389 C   0  0  0  0  0  0  0  0  0  0  0  0
   -0.6680    1.0994    1.2786 O   0  0  0  0  0  0  0  0  0  0  0  0
   -1.5938    0.5759    3.4057 C   0  0  0  0  0  0  0  0  0  0  0  0
   -2.7166    0.2899    3.0283 O   0  0  0  0  0  0  0  0  0  0  0  0
  1  2  1  0  0  0  0
  2  3  2  0  0  0  0
  3  4  1  0  0  0  0
  3 51  1  0  0  0  0
  4  5  1  0  0  0  0
  5  6  1  1  0  0  0
  5 47  1  0  0  0  0
  6  7  1  0  0  0  0
  7  8  2  0  0  0  0
  7 12  1  0  0  0  0
  8  9  1  0  0  0  0
  8 25  1  0  0  0  0
  9 10  1  0  0  0  0
 10 11  2  0  0  0  0
 10 21  1  0  0  0  0
 11 12  1  0  0  0  0
 11 13  1  0  0  0  0
 13 14  2  0  0  0  0
 13 19  1  0  0  0  0
 14 15  1  0  0  0  0
 15 16  2  0  0  0  0
 15 17  1  0  0  0  0
 17 18  2  0  0  0  0
 18 19  1  0  0  0  0
 19 20  2  0  0  0  0
 20 21  1  0  0  0  0
 20 22  1  0  0  0  0
 22 23  1  0  0  0  0
 22 24  1  0  0  0  0
 23 24  1  0  0  0  0
 25 26  2  0  0  0  0
 25 30  1  0  0  0  0
 26 27  1  0  0  0  0
 27 28  2  0  0  0  0
 28 29  1  0  0  0  0
 29 30  2  0  0  0  0
 29 40  1  0  0  0  0
 30 31  1  0  0  0  0
 31 32  2  0  0  0  0
 32 33  1  0  0  0  0
 32 39  1  0  0  0  0
 33 34  2  0  0  0  0
 33 35  1  0  0  0  0
 35 36  2  0  0  0  0
 37 35  1  6  0  0  0
 37 38  1  0  0  0  0
 37 42  1  0  0  0  0
 38 39  1  0  0  0  0
 39 40  2  0  0  0  0
 40 41  1  0  0  0  0
 42 43  1  6  0  0  0
 42 44  1  0  0  0  0
 42 45  1  0  0  0  0
 44 45  1  0  0  0  0
 45 46  2  0  0  0  0
 47 48  2  0  0  0  0
 47 49  1  0  0  0  0
 49 50  2  0  0  0  0
 49 51  1  0  0  0  0
 51 52  2  0  0  0  0
M  END
$$$$