
 OpenBabel11212020033D

 54 62  0  0  1  0  0  0  0  0999 V2000
    4.4074    4.2135   -1.0946 O   0  0  0  0  0  0  0  0  0  0  0  0
    3.1663    3.8546   -0.6292 C   0  0  0  0  0  0  0  0  0  0  0  0
    2.4254    2.9206   -1.2399 C   0  0  0  0  0  0  0  0  0  0  0  0
    2.9595    2.3117   -2.3653 O   0  0  0  0  0  0  0  0  0  0  0  0
    2.3794    1.1382   -2.8988 C   0  0  2  0  0  0  0  0  0  0  0  0
    2.8410    0.8490   -4.2519 O   0  0  0  0  0  0  0  0  0  0  0  0
    2.6072    1.7623   -5.2748 C   0  0  0  0  0  0  0  0  0  0  0  0
    2.4449    1.3941   -6.5746 C   0  0  0  0  0  0  0  0  0  0  0  0
    2.2282    2.3693   -7.5801 O   0  0  0  0  0  0  0  0  0  0  0  0
    2.3425    3.7399   -7.2880 C   0  0  0  0  0  0  0  0  0  0  0  0
    2.5556    4.1501   -6.0295 C   0  0  0  0  0  0  0  0  0  0  0  0
    2.6540    3.2098   -4.8891 C   0  0  0  0  0  0  0  0  0  0  0  0
    2.7213    5.5871   -5.6471 C   0  0  3  0  0  0  0  0  0  0  0  0
    4.0438    5.7409   -5.1674 O   0  0  0  0  0  0  0  0  0  0  0  0
    4.4291    6.9845   -4.7821 C   0  0  0  0  0  0  0  0  0  0  0  0
    5.3980    7.1556   -4.0609 O   0  0  0  0  0  0  0  0  0  0  0  0
    3.6788    8.0076   -5.2564 O   0  0  0  0  0  0  0  0  0  0  0  0
    2.7582    7.8836   -6.3377 C   0  0  3  0  0  0  0  0  0  0  0  0
    2.5945    6.4819   -6.8081 C   0  0  0  0  0  0  0  0  0  0  0  0
    2.3682    6.0299   -8.0628 C   0  0  0  0  0  0  0  0  0  0  0  0
    2.2432    4.6617   -8.3147 O   0  3  0  0  0  0  0  0  0  0  0  0
    2.2522    6.9292   -9.2330 C   0  0  0  0  0  0  0  0  0  0  0  0
    3.4074    7.2931   -9.9983 O   0  0  0  0  0  0  0  0  0  0  0  0
    2.4116    6.4189  -10.5659 O   0  0  0  0  0  0  0  0  0  0  0  0
    1.4724    8.2541   -5.8759 O   0  0  0  0  0  0  0  0  0  0  0  0
    2.4502   -0.0446   -7.0590 C   0  0  0  0  0  0  0  0  0  0  0  0
    2.1038   -1.0571   -6.1584 C   0  0  0  0  0  0  0  0  0  0  0  0
    2.0828   -2.3449   -6.5066 N   0  3  0  0  0  0  0  0  0  0  0  0
    1.8211   -3.2728   -5.5657 F   0  0  0  0  0  0  0  0  0  0  0  0
    2.2848   -2.7451   -7.7372 N   0  0  0  0  0  0  0  0  0  0  0  0
    2.5750   -1.8520   -8.6783 C   0  0  0  0  0  0  0  0  0  0  0  0
    2.7346   -0.4750   -8.3931 C   0  0  0  0  0  0  0  0  0  0  0  0
    3.1666    0.3409   -9.4727 C   0  0  0  0  0  0  0  0  0  0  0  0
    3.2981   -0.1630  -10.7813 C   0  0  0  0  0  0  0  0  0  0  0  0
    3.6749    0.7275  -11.8807 C   0  0  0  0  0  0  0  0  0  0  0  0
    3.8191    1.9245  -11.6842 O   0  0  0  0  0  0  0  0  0  0  0  0
    3.8413    0.0794  -13.2381 C   0  0  0  0  0  0  0  0  0  0  0  0
    4.6353    0.5400  -14.0423 O   0  0  0  0  0  0  0  0  0  0  0  0
    2.9905   -1.1565  -13.4395 C   0  0  1  0  0  0  0  0  0  0  0  0
    3.0476   -2.0449  -12.3040 O   0  0  0  0  0  0  0  0  0  0  0  0
    3.0388   -1.4903  -11.0556 C   0  0  0  0  0  0  0  0  0  0  0  0
    2.7149   -2.3193   -9.9858 C   0  0  0  0  0  0  0  0  0  0  0  0
    2.4888   -3.6212  -10.2262 F   0  0  0  0  0  0  0  0  0  0  0  0
    1.5745   -0.8263  -13.8571 C   0  0  1  0  0  0  0  0  0  0  0  0
    1.4199   -0.0790  -15.0762 O   0  0  0  0  0  0  0  0  0  0  0  0
    0.6081   -1.8750  -13.6807 O   0  0  0  0  0  0  0  0  0  0  0  0
    0.4550   -0.7782  -12.9188 C   0  0  0  0  0  0  0  0  0  0  0  0
    0.4098   -0.6218  -11.7229 O   0  0  0  0  0  0  0  0  0  0  0  0
    0.8670    1.0641   -2.7955 C   0  0  0  0  0  0  0  0  0  0  0  0
    0.1012    0.7372   -3.6897 O   0  0  0  0  0  0  0  0  0  0  0  0
    0.4153    1.4145   -1.4094 C   0  0  0  0  0  0  0  0  0  0  0  0
   -0.3005    0.6301   -0.8135 O   0  0  0  0  0  0  0  0  0  0  0  0
    1.0374    2.6257   -0.7599 C   0  0  0  0  0  0  0  0  0  0  0  0
    0.0544    3.5070    0.2627 S   0  0  0  0  0  0  0  0  0  0  0  0
  1  2  1  0  0  0  0
  2  3  2  0  0  0  0
  3  4  1  0  0  0  0
  3 53  1  0  0  0  0
  4  5  1  0  0  0  0
  5  6  1  6  0  0  0
  5 49  1  0  0  0  0
  6  7  1  0  0  0  0
  7  8  2  0  0  0  0
  7 12  1  0  0  0  0
  8  9  1  0  0  0  0
  8 26  1  0  0  0  0
  9 10  1  0  0  0  0
 10 11  2  0  0  0  0
 10 21  1  0  0  0  0
 11 12  1  0  0  0  0
 11 13  1  0  0  0  0
 13 14  1  0  0  0  0
 13 19  1  0  0  0  0
 14 15  1  0  0  0  0
 15 16  2  0  0  0  0
 15 17  1  0  0  0  0
 17 18  1  0  0  0  0
 18 19  1  0  0  0  0
 18 25  1  0  0  0  0
 19 20  2  0  0  0  0
 20 21  1  0  0  0  0
 20 22  1  0  0  0  0
 22 23  1  0  0  0  0
 22 24  1  0  0  0  0
 23 24  1  0  0  0  0
 26 27  2  0  0  0  0
 26 32  1  0  0  0  0
 27 28  1  0  0  0  0
 28 29  1  0  0  0  0
 28 30  2  0  0  0  0
 30 31  1  0  0  0  0
 31 32  2  0  0  0  0
 31 42  1  0  0  0  0
 32 33  1  0  0  0  0
 33 34  2  0  0  0  0
 34 35  1  0  0  0  0
 34 41  1  0  0  0  0
 35 36  2  0  0  0  0
 35 37  1  0  0  0  0
 37 38  2  0  0  0  0
 39 37  1  1  0  0  0
 39 40  1  0  0  0  0
 39 44  1  0  0  0  0
 40 41  1  0  0  0  0
 41 42  2  0  0  0  0
 42 43  1  0  0  0  0
 44 45  1  6  0  0  0
 44 46  1  0  0  0  0
 44 47  1  0  0  0  0
 46 47  1  0  0  0  0
 47 48  2  0  0  0  0
 49 50  2  0  0  0  0
 49 51  1  0  0  0  0
 51 52  2  0  0  0  0
 51 53  1  0  0  0  0
 53 54  2  0  0  0  0
M  CHG  2  21   1  28   1
M  END
$$$$