
 OpenBabel11222017453D

 55 63  0  0  1  0  0  0  0  0999 V2000
    2.1506   -3.9954   -3.5774 O   0  0  0  0  0  0  0  0  0  0  0  0
    2.6781   -2.8037   -3.1396 C   0  0  0  0  0  0  0  0  0  0  0  0
    2.7301   -2.4730   -1.8440 C   0  0  0  0  0  0  0  0  0  0  0  0
    2.1923   -3.3241   -0.8971 O   0  0  0  0  0  0  0  0  0  0  0  0
    2.8085   -3.2788    0.3812 C   0  0  2  0  0  0  0  0  0  0  0  0
    2.2450   -4.2733    1.2609 O   0  0  0  0  0  0  0  0  0  0  0  0
    2.3791   -5.6178    0.9196 C   0  0  0  0  0  0  0  0  0  0  0  0
    1.8810   -6.6043    1.7095 C   0  0  0  0  0  0  0  0  0  0  0  0
    1.9892   -7.9610    1.3423 O   0  0  0  0  0  0  0  0  0  0  0  0
    2.7074   -8.3327    0.1946 C   0  0  0  0  0  0  0  0  0  0  0  0
    3.2851   -7.4057   -0.5852 C   0  0  0  0  0  0  0  0  0  0  0  0
    3.1124   -5.9496   -0.3521 C   0  0  0  0  0  0  0  0  0  0  0  0
    4.1500   -7.7465   -1.7617 C   0  0  3  0  0  0  0  0  0  0  0  0
    5.4601   -7.3192   -1.4276 O   0  0  0  0  0  0  0  0  0  0  0  0
    6.4705   -7.6062   -2.2893 C   0  0  0  0  0  0  0  0  0  0  0  0
    7.5513   -7.0481   -2.1993 O   0  0  0  0  0  0  0  0  0  0  0  0
    6.2061   -8.5485   -3.2243 O   0  0  0  0  0  0  0  0  0  0  0  0
    5.1158   -9.4614   -3.1444 C   0  0  3  0  0  0  0  0  0  0  0  0
    4.2301   -9.2021   -1.9785 C   0  0  0  0  0  0  0  0  0  0  0  0
    3.5894  -10.0986   -1.1950 C   0  0  0  0  0  0  0  0  0  0  0  0
    2.8268   -9.6740   -0.1086 O   0  3  0  0  0  0  0  0  0  0  0  0
    3.6709  -11.5616   -1.4036 C   0  0  0  0  0  0  0  0  0  0  0  0
    4.6914  -12.3378   -0.7640 O   0  0  0  0  0  0  0  0  0  0  0  0
    3.3184  -12.4691   -0.3467 O   0  0  0  0  0  0  0  0  0  0  0  0
    4.2893   -9.2834   -4.2775 O   0  0  0  0  0  0  0  0  0  0  0  0
    1.2134   -6.3349    3.0378 C   0  0  0  0  0  0  0  0  0  0  0  0
    1.6857   -5.2576    3.7992 C   0  0  0  0  0  0  0  0  0  0  0  0
    1.1285   -4.9127    4.9612 N   0  3  0  0  0  0  0  0  0  0  0  0
    1.6086   -3.8448    5.6271 F   0  0  0  0  0  0  0  0  0  0  0  0
    0.1345   -5.5834    5.4909 N   0  0  0  0  0  0  0  0  0  0  0  0
   -0.3517   -6.6491    4.8603 C   0  0  0  0  0  0  0  0  0  0  0  0
    0.1525   -7.0936    3.6140 C   0  0  0  0  0  0  0  0  0  0  0  0
   -0.4558   -8.2508    3.0578 C   0  0  0  0  0  0  0  0  0  0  0  0
   -1.5010   -8.9256    3.7172 C   0  0  0  0  0  0  0  0  0  0  0  0
   -2.0977  -10.1256    3.1296 C   0  0  0  0  0  0  0  0  0  0  0  0
   -1.6293  -10.6134    2.1123 O   0  0  0  0  0  0  0  0  0  0  0  0
   -3.2748  -10.7295    3.8662 C   0  0  0  0  0  0  0  0  0  0  0  0
   -3.5748  -11.8994    3.6855 O   0  0  0  0  0  0  0  0  0  0  0  0
   -3.9891   -9.7830    4.8038 C   0  0  1  0  0  0  0  0  0  0  0  0
   -3.0586   -9.0018    5.5816 O   0  0  0  0  0  0  0  0  0  0  0  0
   -1.9933   -8.4606    4.9203 C   0  0  0  0  0  0  0  0  0  0  0  0
   -1.3991   -7.3325    5.4756 C   0  0  0  0  0  0  0  0  0  0  0  0
   -1.8750   -6.8636    6.6405 F   0  0  0  0  0  0  0  0  0  0  0  0
   -5.0619   -8.9424    4.1184 C   0  0  1  0  0  0  0  0  0  0  0  0
   -6.2055   -9.5953    3.4338 N   0  0  0  0  0  0  0  0  0  0  0  0
   -7.2626   -9.8916    4.3558 N   0  0  0  0  0  0  0  0  0  0  0  0
   -5.3884   -7.7169    4.8086 O   0  0  0  0  0  0  0  0  0  0  0  0
   -4.7977   -7.5962    3.6198 C   0  0  0  0  0  0  0  0  0  0  0  0
   -3.7618   -7.0400    3.2772 O   0  0  0  0  0  0  0  0  0  0  0  0
    2.5821   -1.8923    0.9333 C   0  0  0  0  0  0  0  0  0  0  0  0
    2.0036   -1.6291    1.9760 O   0  0  0  0  0  0  0  0  0  0  0  0
    3.2179   -0.8559    0.0376 C   0  0  0  0  0  0  0  0  0  0  0  0
    3.7489    0.1202    0.5365 O   0  0  0  0  0  0  0  0  0  0  0  0
    3.3176   -1.1555   -1.4539 C   0  0  0  0  0  0  0  0  0  0  0  0
    3.8768   -0.4063   -2.2335 O   0  0  0  0  0  0  0  0  0  0  0  0
  1  2  1  0  0  0  0
  2  3  2  0  0  0  0
  3  4  1  0  0  0  0
  3 54  1  0  0  0  0
  4  5  1  0  0  0  0
  5  6  1  1  0  0  0
  5 50  1  0  0  0  0
  6  7  1  0  0  0  0
  7  8  2  0  0  0  0
  7 12  1  0  0  0  0
  8  9  1  0  0  0  0
  8 26  1  0  0  0  0
  9 10  1  0  0  0  0
 10 11  2  0  0  0  0
 10 21  1  0  0  0  0
 11 12  1  0  0  0  0
 11 13  1  0  0  0  0
 13 14  1  0  0  0  0
 13 19  1  0  0  0  0
 14 15  1  0  0  0  0
 15 16  2  0  0  0  0
 15 17  1  0  0  0  0
 17 18  1  0  0  0  0
 18 19  1  0  0  0  0
 18 25  1  0  0  0  0
 19 20  2  0  0  0  0
 20 21  1  0  0  0  0
 20 22  1  0  0  0  0
 22 23  1  0  0  0  0
 22 24  1  0  0  0  0
 23 24  1  0  0  0  0
 26 27  2  0  0  0  0
 26 32  1  0  0  0  0
 27 28  1  0  0  0  0
 28 29  1  0  0  0  0
 28 30  2  0  0  0  0
 30 31  1  0  0  0  0
 31 32  2  0  0  0  0
 31 42  1  0  0  0  0
 32 33  1  0  0  0  0
 33 34  2  0  0  0  0
 34 35  1  0  0  0  0
 34 41  1  0  0  0  0
 35 36  2  0  0  0  0
 35 37  1  0  0  0  0
 37 38  2  0  0  0  0
 39 37  1  6  0  0  0
 39 40  1  0  0  0  0
 39 44  1  0  0  0  0
 40 41  1  0  0  0  0
 41 42  2  0  0  0  0
 42 43  1  0  0  0  0
 44 45  1  6  0  0  0
 44 47  1  0  0  0  0
 44 48  1  0  0  0  0
 45 46  1  0  0  0  0
 47 48  1  0  0  0  0
 48 49  2  0  0  0  0
 50 51  2  0  0  0  0
 50 52  1  0  0  0  0
 52 53  2  0  0  0  0
 52 54  1  0  0  0  0
 54 55  2  0  0  0  0
M  CHG  2  21   1  28   1
M  END
$$$$