
 OpenBabel09222002013D

 52 60  0  0  1  0  0  0  0  0999 V2000
    1.8406   -0.0892   -0.4421 O   0  0  0  0  0  0  0  0  0  0  0  0
    3.1925   -0.2517   -0.5884 C   0  0  0  0  0  0  0  0  0  0  0  0
    3.7310   -0.7196   -1.7385 C   0  0  0  0  0  0  0  0  0  0  0  0
    5.1124   -0.8249   -1.8705 N   0  0  0  0  0  0  0  0  0  0  0  0
    5.7002   -1.5287   -3.0240 C   0  0  0  0  0  0  0  0  0  0  0  0
    4.7735   -1.6364   -4.1995 C   0  0  0  0  0  0  0  0  0  0  0  0
    3.4016   -1.4211   -4.0491 C   0  0  0  0  0  0  0  0  0  0  0  0
    2.9167   -1.0589   -2.7900 N   0  0  0  0  0  0  0  0  0  0  0  0
    2.5675   -1.4877   -5.1762 C   0  0  0  0  0  0  0  0  0  0  0  0
    1.1207   -1.1143   -5.1041 C   0  0  0  0  0  0  0  0  0  0  0  0
    0.4307   -1.0202   -6.4407 C   0  0  0  0  0  0  0  0  0  0  0  0
    1.0832   -1.4352   -7.5547 C   0  0  0  0  0  0  0  0  0  0  0  0
    2.3780   -1.9509   -7.5399 O   0  0  0  0  0  0  0  0  0  0  0  0
    3.1301   -1.8639   -6.3880 C   0  0  0  0  0  0  0  0  0  0  0  0
    4.4450   -2.1343   -6.5490 N   0  0  0  0  0  0  0  0  0  0  0  0
    5.2153   -1.9956   -5.4572 C   0  0  0  0  0  0  0  0  0  0  0  0
    6.5325   -2.2251   -5.6946 O   0  0  0  0  0  0  0  0  0  0  0  0
    0.5102   -1.4299   -8.9242 C   0  0  0  0  0  0  0  0  0  0  0  0
   -0.2146   -2.5384   -9.2312 N   0  0  0  0  0  0  0  0  0  0  0  0
   -0.7500   -2.6155  -10.4688 C   0  0  0  0  0  0  0  0  0  0  0  0
   -0.6391   -1.6231  -11.4240 C   0  0  0  0  0  0  0  0  0  0  0  0
    0.1331   -0.5015  -11.1306 C   0  0  0  0  0  0  0  0  0  0  0  0
    0.7695   -0.4019   -9.8668 C   0  0  0  0  0  0  0  0  0  0  0  0
    1.6429    0.6891   -9.6609 C   0  0  0  0  0  0  0  0  0  0  0  0
    1.8467    1.6444  -10.6665 C   0  0  0  0  0  0  0  0  0  0  0  0
    1.1331    1.5907  -11.8595 C   0  0  0  0  0  0  0  0  0  0  0  0
    0.2934    0.5074  -12.0964 C   0  0  0  0  0  0  0  0  0  0  0  0
    1.2014    2.5239  -12.8578 O   0  0  0  0  0  0  0  0  0  0  0  0
    1.7904    3.7823  -12.5068 C   0  0  2  0  0  0  0  0  0  0  0  0
    3.0188    3.6593  -11.6417 C   0  0  0  0  0  0  0  0  0  0  0  0
    4.0542    4.2861  -11.8154 O   0  0  0  0  0  0  0  0  0  0  0  0
    2.8655    2.6878  -10.4949 C   0  0  0  0  0  0  0  0  0  0  0  0
    3.5810    2.7519   -9.5088 O   0  0  0  0  0  0  0  0  0  0  0  0
    0.7798    4.6950  -11.8863 C   0  0  1  0  0  0  0  0  0  0  0  0
    0.1525    4.2419  -10.6621 O   0  0  0  0  0  0  0  0  0  0  0  0
    1.1421    6.0787  -11.9138 O   0  0  0  0  0  0  0  0  0  0  0  0
    0.0489    5.7275  -12.6231 C   0  0  0  0  0  0  0  0  0  0  0  0
   -1.0931    6.0991  -12.5130 O   0  0  0  0  0  0  0  0  0  0  0  0
   -0.8428   -0.4499   -6.4870 O   0  0  0  0  0  0  0  0  0  0  0  0
   -1.6998   -0.6066   -5.3387 C   0  0  1  0  0  0  0  0  0  0  0  0
   -1.5365    0.4730   -4.4170 O   0  0  0  0  0  0  0  0  0  0  0  0
   -2.3948    0.3682   -3.2693 C   0  0  1  0  0  0  0  0  0  0  0  0
   -1.8983    1.2917   -2.1976 C   0  0  0  0  0  0  0  0  0  0  0  0
   -0.6013    0.9580   -1.6978 O   0  0  0  0  0  0  0  0  0  0  0  0
   -1.7765    0.7199   -0.8921 O   0  0  0  0  0  0  0  0  0  0  0  0
   -3.8048    0.6797   -3.7117 C   0  0  0  0  0  0  0  0  0  0  0  0
   -4.6314    1.3000   -3.0600 O   0  0  0  0  0  0  0  0  0  0  0  0
   -4.1594    0.0656   -5.0499 C   0  0  0  0  0  0  0  0  0  0  0  0
   -5.2945    0.1902   -5.4880 O   0  0  0  0  0  0  0  0  0  0  0  0
   -3.1428   -0.7478   -5.8236 C   0  0  0  0  0  0  0  0  0  0  0  0
   -3.5154   -1.5341   -6.6842 O   0  0  0  0  0  0  0  0  0  0  0  0
    3.9669    0.0555    0.5009 O   0  0  0  0  0  0  0  0  0  0  0  0
  1  2  1  0  0  0  0
  2  3  2  0  0  0  0
  2 52  1  0  0  0  0
  3  4  1  0  0  0  0
  3  8  1  0  0  0  0
  4  5  1  0  0  0  0
  5  6  1  0  0  0  0
  6  7  2  0  0  0  0
  6 16  1  0  0  0  0
  7  8  1  0  0  0  0
  7  9  1  0  0  0  0
  9 10  1  0  0  0  0
  9 14  2  0  0  0  0
 10 11  1  0  0  0  0
 11 12  2  0  0  0  0
 11 39  1  0  0  0  0
 12 13  1  0  0  0  0
 12 18  1  0  0  0  0
 13 14  1  0  0  0  0
 14 15  1  0  0  0  0
 15 16  2  0  0  0  0
 16 17  1  0  0  0  0
 18 19  2  0  0  0  0
 18 23  1  0  0  0  0
 19 20  1  0  0  0  0
 20 21  2  0  0  0  0
 21 22  1  0  0  0  0
 22 23  2  0  0  0  0
 22 27  1  0  0  0  0
 23 24  1  0  0  0  0
 24 25  2  0  0  0  0
 25 26  1  0  0  0  0
 25 32  1  0  0  0  0
 26 27  2  0  0  0  0
 26 28  1  0  0  0  0
 29 28  1  1  0  0  0
 29 30  1  0  0  0  0
 29 34  1  0  0  0  0
 30 31  2  0  0  0  0
 30 32  1  0  0  0  0
 32 33  2  0  0  0  0
 34 35  1  1  0  0  0
 34 36  1  0  0  0  0
 34 37  1  0  0  0  0
 36 37  1  0  0  0  0
 37 38  2  0  0  0  0
 40 39  1  6  0  0  0
 40 41  1  0  0  0  0
 40 50  1  0  0  0  0
 41 42  1  0  0  0  0
 42 46  1  0  0  0  0
 42 43  1  1  0  0  0
 43 44  1  0  0  0  0
 43 45  1  0  0  0  0
 44 45  1  0  0  0  0
 46 47  2  0  0  0  0
 46 48  1  0  0  0  0
 48 49  2  0  0  0  0
 48 50  1  0  0  0  0
 50 51  2  0  0  0  0
M  END
$$$$