
 OpenBabel11212021203D

 53 61  0  0  1  0  0  0  0  0999 V2000
    3.4649    7.3852   -3.6182 O   0  0  0  0  0  0  0  0  0  0  0  0
    2.7831    6.3221   -4.1586 C   0  0  0  0  0  0  0  0  0  0  0  0
    2.3059    5.3176   -3.4141 C   0  0  0  0  0  0  0  0  0  0  0  0
    2.5150    5.3194   -2.0434 O   0  0  0  0  0  0  0  0  0  0  0  0
    1.6129    4.5266   -1.2795 C   0  0  2  0  0  0  0  0  0  0  0  0
    1.9890    4.5406    0.1057 O   0  0  0  0  0  0  0  0  0  0  0  0
    1.9828    5.7531    0.7774 C   0  0  0  0  0  0  0  0  0  0  0  0
    2.8673    6.0010    1.7712 C   0  0  0  0  0  0  0  0  0  0  0  0
    2.8385    7.2041    2.4897 O   0  0  0  0  0  0  0  0  0  0  0  0
    1.9880    8.2427    2.1039 C   0  0  0  0  0  0  0  0  0  0  0  0
    1.0739    8.0693    1.1330 C   0  0  0  0  0  0  0  0  0  0  0  0
    0.9362    6.7711    0.3941 C   0  0  0  0  0  0  0  0  0  0  0  0
    0.1507    9.1749    0.6968 C   0  0  3  0  0  0  0  0  0  0  0  0
   -1.1706    8.7544    0.9752 O   0  0  0  0  0  0  0  0  0  0  0  0
   -2.1743    9.6114    0.6440 C   0  0  0  0  0  0  0  0  0  0  0  0
   -3.3188    9.2214    0.4890 O   0  0  0  0  0  0  0  0  0  0  0  0
   -1.8097   10.9095    0.4976 O   0  0  0  0  0  0  0  0  0  0  0  0
   -0.5988   11.4739    1.0298 C   0  0  0  0  0  0  0  0  0  0  0  0
    0.3716   10.4259    1.4652 C   0  0  0  0  0  0  0  0  0  0  0  0
    1.3083   10.5338    2.4356 C   0  0  0  0  0  0  0  0  0  0  0  0
    2.1227    9.4527    2.7494 O   0  3  0  0  0  0  0  0  0  0  0  0
    1.5793   11.7692    3.2117 C   0  0  0  0  0  0  0  0  0  0  0  0
    2.6266   11.7819    4.2005 O   0  0  0  0  0  0  0  0  0  0  0  0
    2.7723   12.5290    2.9783 O   0  0  0  0  0  0  0  0  0  0  0  0
    3.9585    5.0319    2.1486 C   0  0  0  0  0  0  0  0  0  0  0  0
    3.6365    3.7270    2.0118 N   0  0  0  0  0  0  0  0  0  0  0  0
    4.5677    2.7963    2.1549 N   0  3  0  0  0  0  0  0  0  0  0  0
    4.2236    1.5092    1.9517 F   0  0  0  0  0  0  0  0  0  0  0  0
    5.8352    3.0897    2.4652 C   0  0  0  0  0  0  0  0  0  0  0  0
    6.2283    4.4102    2.6692 C   0  0  0  0  0  0  0  0  0  0  0  0
    5.2660    5.4256    2.5251 C   0  0  0  0  0  0  0  0  0  0  0  0
    5.7109    6.7493    2.7437 C   0  0  0  0  0  0  0  0  0  0  0  0
    7.0375    7.0478    3.0853 C   0  0  0  0  0  0  0  0  0  0  0  0
    7.3990    8.4366    3.3695 C   0  0  0  0  0  0  0  0  0  0  0  0
    6.5151    9.2698    3.5204 O   0  0  0  0  0  0  0  0  0  0  0  0
    8.8744    8.7588    3.4621 C   0  0  0  0  0  0  0  0  0  0  0  0
    9.2360    9.8996    3.7045 O   0  0  0  0  0  0  0  0  0  0  0  0
    9.7955    7.6043    3.1076 C   0  0  1  0  0  0  0  0  0  0  0  0
    9.3029    6.2930    3.4440 O   0  0  0  0  0  0  0  0  0  0  0  0
    7.9887    6.0528    3.1694 C   0  0  0  0  0  0  0  0  0  0  0  0
    7.5679    4.7360    2.9800 C   0  0  0  0  0  0  0  0  0  0  0  0
    8.4629    3.7408    3.0689 F   0  0  0  0  0  0  0  0  0  0  0  0
   10.1532    7.6587    1.6529 C   0  0  1  0  0  0  0  0  0  0  0  0
    9.0408    7.6264    0.7178 O   0  0  0  0  0  0  0  0  0  0  0  0
   11.2238    8.5294    1.3163 O   0  0  0  0  0  0  0  0  0  0  0  0
   11.4393    7.2123    1.1182 C   0  0  0  0  0  0  0  0  0  0  0  0
   11.6423    6.6025    0.0888 O   0  0  0  0  0  0  0  0  0  0  0  0
    1.6869    3.1007   -1.7774 C   0  0  0  0  0  0  0  0  0  0  0  0
    2.0922    2.1352   -1.1487 O   0  0  0  0  0  0  0  0  0  0  0  0
    1.2607    3.0208   -3.2176 C   0  0  0  0  0  0  0  0  0  0  0  0
    0.5953    2.0774   -3.6028 O   0  0  0  0  0  0  0  0  0  0  0  0
    1.6066    4.1960   -4.1173 C   0  0  0  0  0  0  0  0  0  0  0  0
    1.3138    4.2138   -5.3001 O   0  0  0  0  0  0  0  0  0  0  0  0
  1  2  1  0  0  0  0
  2  3  2  0  0  0  0
  3  4  1  0  0  0  0
  3 52  1  0  0  0  0
  4  5  1  0  0  0  0
  5  6  1  1  0  0  0
  5 48  1  0  0  0  0
  6  7  1  0  0  0  0
  7  8  2  0  0  0  0
  7 12  1  0  0  0  0
  8  9  1  0  0  0  0
  8 25  1  0  0  0  0
  9 10  1  0  0  0  0
 10 11  2  0  0  0  0
 10 21  1  0  0  0  0
 11 12  1  0  0  0  0
 11 13  1  0  0  0  0
 13 14  1  0  0  0  0
 13 19  1  0  0  0  0
 14 15  1  0  0  0  0
 15 16  2  0  0  0  0
 15 17  1  0  0  0  0
 17 18  1  0  0  0  0
 18 19  1  0  0  0  0
 19 20  2  0  0  0  0
 20 21  1  0  0  0  0
 20 22  1  0  0  0  0
 22 23  1  0  0  0  0
 22 24  1  0  0  0  0
 23 24  1  0  0  0  0
 25 26  2  0  0  0  0
 25 31  1  0  0  0  0
 26 27  1  0  0  0  0
 27 28  1  0  0  0  0
 27 29  2  0  0  0  0
 29 30  1  0  0  0  0
 30 31  2  0  0  0  0
 30 41  1  0  0  0  0
 31 32  1  0  0  0  0
 32 33  2  0  0  0  0
 33 34  1  0  0  0  0
 33 40  1  0  0  0  0
 34 35  2  0  0  0  0
 34 36  1  0  0  0  0
 36 37  2  0  0  0  0
 38 36  1  6  0  0  0
 38 39  1  0  0  0  0
 38 43  1  0  0  0  0
 39 40  1  0  0  0  0
 40 41  2  0  0  0  0
 41 42  1  0  0  0  0
 43 44  1  6  0  0  0
 43 45  1  0  0  0  0
 43 46  1  0  0  0  0
 45 46  1  0  0  0  0
 46 47  2  0  0  0  0
 48 49  2  0  0  0  0
 48 50  1  0  0  0  0
 50 51  2  0  0  0  0
 50 52  1  0  0  0  0
 52 53  2  0  0  0  0
M  CHG  2  21   1  27   1
M  END
$$$$