
 OpenBabel09222006353D

 51 59  0  0  1  0  0  0  0  0999 V2000
    1.4468   -0.3785    1.1060 O   0  0  0  0  0  0  0  0  0  0  0  0
    0.4236    0.5494    1.4689 C   0  0  0  0  0  0  0  0  0  0  0  0
    0.1819    1.4876    0.2859 C   0  0  2  0  0  0  0  0  0  0  0  0
   -0.2856    0.7135   -0.8123 O   0  0  0  0  0  0  0  0  0  0  0  0
    0.4332    0.8404   -2.0308 C   0  0  2  0  0  0  0  0  0  0  0  0
   -0.0245   -0.1140   -2.9956 O   0  0  0  0  0  0  0  0  0  0  0  0
   -1.3649   -0.0451   -3.3565 C   0  0  0  0  0  0  0  0  0  0  0  0
   -2.0447   -1.1448   -3.7362 C   0  0  0  0  0  0  0  0  0  0  0  0
   -3.3677   -1.1331   -4.1566 O   0  0  0  0  0  0  0  0  0  0  0  0
   -4.0181    0.0722   -4.2922 C   0  0  0  0  0  0  0  0  0  0  0  0
   -3.4156    1.2748   -3.9660 C   0  0  0  0  0  0  0  0  0  0  0  0
   -2.0356    1.2971   -3.3945 C   0  0  0  0  0  0  0  0  0  0  0  0
   -4.1601    2.4330   -4.1799 C   0  0  0  0  0  0  0  0  0  0  0  0
   -3.6437    3.7002   -3.8998 N   0  0  0  0  0  0  0  0  0  0  0  0
   -4.3365    4.8640   -4.1170 C   0  0  0  0  0  0  0  0  0  0  0  0
   -3.7866    5.9250   -3.8379 O   0  0  0  0  0  0  0  0  0  0  0  0
   -5.6005    4.7883   -4.6373 N   0  0  0  0  0  0  0  0  0  0  0  0
   -6.1254    3.6342   -4.9039 C   0  0  0  0  0  0  0  0  0  0  0  0
   -5.4507    2.3524   -4.6893 C   0  0  0  0  0  0  0  0  0  0  0  0
   -6.0145    1.1110   -4.9737 C   0  0  0  0  0  0  0  0  0  0  0  0
   -5.2756   -0.0204   -4.7862 N   0  0  0  0  0  0  0  0  0  0  0  0
   -7.4130    0.9398   -5.5097 C   0  0  0  0  0  0  0  0  0  0  0  0
   -8.3283    0.1627   -4.7190 O   0  0  0  0  0  0  0  0  0  0  0  0
   -8.4958    1.5874   -4.8228 O   0  0  0  0  0  0  0  0  0  0  0  0
   -1.4481   -2.4931   -3.7470 C   0  0  0  0  0  0  0  0  0  0  0  0
   -1.5985   -3.1768   -2.5828 N   0  0  0  0  0  0  0  0  0  0  0  0
   -1.1264   -4.4372   -2.5431 C   0  0  0  0  0  0  0  0  0  0  0  0
   -0.5207   -5.0683   -3.6152 C   0  0  0  0  0  0  0  0  0  0  0  0
   -0.3703   -4.3688   -4.8166 C   0  0  0  0  0  0  0  0  0  0  0  0
   -0.8306   -3.0358   -4.9009 C   0  0  0  0  0  0  0  0  0  0  0  0
   -0.6441   -2.3470   -6.1226 C   0  0  0  0  0  0  0  0  0  0  0  0
   -0.0357   -2.9708   -7.2204 C   0  0  0  0  0  0  0  0  0  0  0  0
    0.3823   -4.2890   -7.1407 C   0  0  0  0  0  0  0  0  0  0  0  0
    0.2278   -4.9788   -5.9367 C   0  0  0  0  0  0  0  0  0  0  0  0
    0.9895   -4.9743   -8.1489 O   0  0  0  0  0  0  0  0  0  0  0  0
    0.8371   -4.4670   -9.4745 C   0  0  2  0  0  0  0  0  0  0  0  0
    0.7102   -2.9720   -9.6501 C   0  0  0  0  0  0  0  0  0  0  0  0
    0.8783   -2.4091  -10.7254 O   0  0  0  0  0  0  0  0  0  0  0  0
    0.1868   -2.2153   -8.4549 C   0  0  0  0  0  0  0  0  0  0  0  0
   -0.0638   -1.0224   -8.5351 O   0  0  0  0  0  0  0  0  0  0  0  0
   -0.2548   -5.2108  -10.1908 C   0  0  1  0  0  0  0  0  0  0  0  0
   -0.0857   -6.6482  -10.2791 O   0  0  0  0  0  0  0  0  0  0  0  0
   -1.5759   -4.7521   -9.9066 O   0  0  0  0  0  0  0  0  0  0  0  0
   -1.1629   -4.6320  -11.1906 C   0  0  0  0  0  0  0  0  0  0  0  0
   -1.6311   -5.1247  -12.1883 O   0  0  0  0  0  0  0  0  0  0  0  0
    1.9487    0.7335   -1.8699 C   0  0  0  0  0  0  0  0  0  0  0  0
    2.7156    0.0659   -2.5459 O   0  0  0  0  0  0  0  0  0  0  0  0
    2.4513    1.7055   -0.8317 C   0  0  0  0  0  0  0  0  0  0  0  0
    3.6141    2.0745   -0.8201 O   0  0  0  0  0  0  0  0  0  0  0  0
    1.4402    2.3168    0.1110 C   0  0  0  0  0  0  0  0  0  0  0  0
    1.6249    3.4012    0.6424 O   0  0  0  0  0  0  0  0  0  0  0  0
  1  2  1  0  0  0  0
  3  4  1  0  0  0  0
  3 50  1  0  0  0  0
  3  2  1  1  0  0  0
  4  5  1  0  0  0  0
  5  6  1  6  0  0  0
  5 46  1  0  0  0  0
  6  7  1  0  0  0  0
  7  8  2  0  0  0  0
  7 12  1  0  0  0  0
  8  9  1  0  0  0  0
  8 25  1  0  0  0  0
  9 10  1  0  0  0  0
 10 11  2  0  0  0  0
 10 21  1  0  0  0  0
 11 12  1  0  0  0  0
 11 13  1  0  0  0  0
 13 14  1  0  0  0  0
 13 19  2  0  0  0  0
 14 15  1  0  0  0  0
 15 16  2  0  0  0  0
 15 17  1  0  0  0  0
 17 18  2  0  0  0  0
 18 19  1  0  0  0  0
 19 20  1  0  0  0  0
 20 21  2  0  0  0  0
 20 22  1  0  0  0  0
 22 23  1  0  0  0  0
 22 24  1  0  0  0  0
 23 24  1  0  0  0  0
 25 26  2  0  0  0  0
 25 30  1  0  0  0  0
 26 27  1  0  0  0  0
 27 28  2  0  0  0  0
 28 29  1  0  0  0  0
 29 30  2  0  0  0  0
 29 34  1  0  0  0  0
 30 31  1  0  0  0  0
 31 32  2  0  0  0  0
 32 33  1  0  0  0  0
 32 39  1  0  0  0  0
 33 34  2  0  0  0  0
 33 35  1  0  0  0  0
 36 35  1  1  0  0  0
 36 37  1  0  0  0  0
 36 41  1  0  0  0  0
 37 38  2  0  0  0  0
 37 39  1  0  0  0  0
 39 40  2  0  0  0  0
 41 42  1  6  0  0  0
 41 43  1  0  0  0  0
 41 44  1  0  0  0  0
 43 44  1  0  0  0  0
 44 45  2  0  0  0  0
 46 47  2  0  0  0  0
 46 48  1  0  0  0  0
 48 49  2  0  0  0  0
 48 50  1  0  0  0  0
 50 51  2  0  0  0  0
M  END
$$$$