
 OpenBabel11222000043D

 54 62  0  0  1  0  0  0  0  0999 V2000
    2.7409    5.4526   -6.9895 O   0  0  0  0  0  0  0  0  0  0  0  0
    3.1928    4.1746   -6.7667 C   0  0  0  0  0  0  0  0  0  0  0  0
    3.3527    3.6650   -5.5414 C   0  0  0  0  0  0  0  0  0  0  0  0
    3.1049    4.4439   -4.4313 O   0  0  0  0  0  0  0  0  0  0  0  0
    2.8362    3.8368   -3.1856 C   0  0  2  0  0  0  0  0  0  0  0  0
    3.7136    4.3860   -2.1616 O   0  0  0  0  0  0  0  0  0  0  0  0
    3.6656    5.7585   -1.9497 C   0  0  0  0  0  0  0  0  0  0  0  0
    4.7424    6.4199   -1.4759 C   0  0  0  0  0  0  0  0  0  0  0  0
    4.7503    7.7969   -1.2414 O   0  0  0  0  0  0  0  0  0  0  0  0
    3.5904    8.5453   -1.4898 C   0  0  0  0  0  0  0  0  0  0  0  0
    2.4466    7.9510   -1.8843 C   0  0  0  0  0  0  0  0  0  0  0  0
    2.3606    6.4807   -2.1689 C   0  0  0  0  0  0  0  0  0  0  0  0
    1.1763    8.7278   -2.1150 C   0  0  3  0  0  0  0  0  0  0  0  0
    0.2133    8.2763   -1.1860 O   0  0  0  0  0  0  0  0  0  0  0  0
   -1.0399    8.8555   -1.5064 C   0  0  1  0  0  0  0  0  0  0  0  0
   -1.9774    8.4526   -0.5028 N   0  0  0  0  0  0  0  0  0  0  0  0
   -1.0088   10.2787   -1.5841 O   0  0  0  0  0  0  0  0  0  0  0  0
    0.1135   10.9413   -1.9151 C   0  0  0  0  0  0  0  0  0  0  0  0
    0.1339   12.1227   -2.2209 O   0  0  0  0  0  0  0  0  0  0  0  0
    1.3595   10.1670   -1.8425 C   0  0  0  0  0  0  0  0  0  0  0  0
    2.5396   10.7198   -1.4860 C   0  0  0  0  0  0  0  0  0  0  0  0
    3.6575    9.9126   -1.3145 O   0  3  0  0  0  0  0  0  0  0  0  0
    2.7473   12.1572   -1.1733 C   0  0  0  0  0  0  0  0  0  0  0  0
    2.6481   12.6375    0.1727 O   0  0  0  0  0  0  0  0  0  0  0  0
    3.9348   12.5712   -0.4690 O   0  0  0  0  0  0  0  0  0  0  0  0
    5.9868    5.7003   -1.1095 C   0  0  0  0  0  0  0  0  0  0  0  0
    6.0970    5.2059    0.1886 C   0  0  0  0  0  0  0  0  0  0  0  0
    7.1516    4.4672    0.5526 N   0  3  0  0  0  0  0  0  0  0  0  0
    7.2358    4.0207    1.8210 F   0  0  0  0  0  0  0  0  0  0  0  0
    8.1173    4.1479   -0.2878 N   0  0  0  0  0  0  0  0  0  0  0  0
    8.0694    4.5806   -1.5517 C   0  0  0  0  0  0  0  0  0  0  0  0
    7.0200    5.3943   -2.0203 C   0  0  0  0  0  0  0  0  0  0  0  0
    7.0663    5.8504   -3.3582 C   0  0  0  0  0  0  0  0  0  0  0  0
    8.1213    5.4875   -4.2108 C   0  0  0  0  0  0  0  0  0  0  0  0
    8.2056    6.0564   -5.5595 C   0  0  0  0  0  0  0  0  0  0  0  0
    7.4332    6.9394   -5.8970 O   0  0  0  0  0  0  0  0  0  0  0  0
    9.3124    5.5469   -6.4578 C   0  0  0  0  0  0  0  0  0  0  0  0
    9.5816    6.1250   -7.4997 O   0  0  0  0  0  0  0  0  0  0  0  0
    9.9785    4.2785   -5.9698 C   0  0  1  0  0  0  0  0  0  0  0  0
   10.1559    4.2073   -4.5456 O   0  0  0  0  0  0  0  0  0  0  0  0
    9.1181    4.6367   -3.7714 C   0  0  0  0  0  0  0  0  0  0  0  0
    9.0843    4.2138   -2.4402 C   0  0  0  0  0  0  0  0  0  0  0  0
   10.0675    3.4171   -1.9915 F   0  0  0  0  0  0  0  0  0  0  0  0
    9.2469    3.0715   -6.4639 C   0  0  1  0  0  0  0  0  0  0  0  0
    7.8643    2.9268   -6.0359 O   0  0  0  0  0  0  0  0  0  0  0  0
    9.5167    2.7123   -7.8139 O   0  0  0  0  0  0  0  0  0  0  0  0
    9.9143    1.8338   -6.8727 C   0  0  0  0  0  0  0  0  0  0  0  0
    9.5645    0.6884   -6.6776 O   0  0  0  0  0  0  0  0  0  0  0  0
    2.9779    2.3403   -3.0150 C   0  0  0  0  0  0  0  0  0  0  0  0
    2.5297    1.7108   -2.0678 O   0  0  0  0  0  0  0  0  0  0  0  0
    3.8455    1.7001   -4.0517 C   0  0  0  0  0  0  0  0  0  0  0  0
    4.5951    0.7934   -3.7277 O   0  0  0  0  0  0  0  0  0  0  0  0
    3.8785    2.2767   -5.4414 C   0  0  0  0  0  0  0  0  0  0  0  0
    4.3525    1.6546   -6.3762 O   0  0  0  0  0  0  0  0  0  0  0  0
  1  2  1  0  0  0  0
  2  3  2  0  0  0  0
  3  4  1  0  0  0  0
  3 53  1  0  0  0  0
  4  5  1  0  0  0  0
  5  6  1  1  0  0  0
  5 49  1  0  0  0  0
  6  7  1  0  0  0  0
  7  8  2  0  0  0  0
  7 12  1  0  0  0  0
  8  9  1  0  0  0  0
  8 26  1  0  0  0  0
  9 10  1  0  0  0  0
 10 11  2  0  0  0  0
 10 22  1  0  0  0  0
 11 12  1  0  0  0  0
 11 13  1  0  0  0  0
 13 14  1  0  0  0  0
 13 20  1  0  0  0  0
 14 15  1  0  0  0  0
 15 16  1  1  0  0  0
 15 17  1  0  0  0  0
 17 18  1  0  0  0  0
 18 19  2  0  0  0  0
 18 20  1  0  0  0  0
 20 21  2  0  0  0  0
 21 22  1  0  0  0  0
 21 23  1  0  0  0  0
 23 24  1  0  0  0  0
 23 25  1  0  0  0  0
 24 25  1  0  0  0  0
 26 27  2  0  0  0  0
 26 32  1  0  0  0  0
 27 28  1  0  0  0  0
 28 29  1  0  0  0  0
 28 30  2  0  0  0  0
 30 31  1  0  0  0  0
 31 32  2  0  0  0  0
 31 42  1  0  0  0  0
 32 33  1  0  0  0  0
 33 34  2  0  0  0  0
 34 35  1  0  0  0  0
 34 41  1  0  0  0  0
 35 36  2  0  0  0  0
 35 37  1  0  0  0  0
 37 38  2  0  0  0  0
 39 37  1  1  0  0  0
 39 40  1  0  0  0  0
 39 44  1  0  0  0  0
 40 41  1  0  0  0  0
 41 42  2  0  0  0  0
 42 43  1  0  0  0  0
 44 45  1  1  0  0  0
 44 46  1  0  0  0  0
 44 47  1  0  0  0  0
 46 47  1  0  0  0  0
 47 48  2  0  0  0  0
 49 50  2  0  0  0  0
 49 51  1  0  0  0  0
 51 52  2  0  0  0  0
 51 53  1  0  0  0  0
 53 54  2  0  0  0  0
M  CHG  2  22   1  28   1
M  END
$$$$