
 OpenBabel10192021153D

 51 59  0  0  1  0  0  0  0  0999 V2000
    3.4093    3.0792    5.7426 O   0  0  0  0  0  0  0  0  0  0  0  0
    3.8810    2.0955    4.9121 C   0  0  0  0  0  0  0  0  0  0  0  0
    3.4876    1.9819    3.6389 C   0  0  0  0  0  0  0  0  0  0  0  0
    2.5320    2.8349    3.1160 O   0  0  0  0  0  0  0  0  0  0  0  0
    2.8438    3.2935    1.8032 C   0  0  2  0  0  0  0  0  0  0  0  0
    1.8790    4.2509    1.3550 O   0  0  0  0  0  0  0  0  0  0  0  0
    1.7473    5.4151    2.1040 C   0  0  0  0  0  0  0  0  0  0  0  0
    0.5648    6.0649    2.1665 C   0  0  0  0  0  0  0  0  0  0  0  0
    0.3826    7.2658    2.8442 O   0  0  0  0  0  0  0  0  0  0  0  0
    1.4876    7.9109    3.3804 C   0  0  0  0  0  0  0  0  0  0  0  0
    2.7101    7.3564    3.3466 C   0  0  0  0  0  0  0  0  0  0  0  0
    2.9704    6.0063    2.7666 C   0  0  0  0  0  0  0  0  0  0  0  0
    3.8497    8.1431    3.8959 C   0  0  0  0  0  0  0  0  0  0  0  0
    5.0481    7.6582    3.9017 N   0  0  0  0  0  0  0  0  0  0  0  0
    6.0806    8.4200    4.4140 C   0  0  0  0  0  0  0  0  0  0  0  0
    7.1964    7.9184    4.4615 O   0  0  0  0  0  0  0  0  0  0  0  0
    5.9202    9.7136    4.8728 N   0  0  0  0  0  0  0  0  0  0  0  0
    4.7378   10.2238    4.8758 C   0  0  0  0  0  0  0  0  0  0  0  0
    3.5554    9.4978    4.4150 C   0  0  0  0  0  0  0  0  0  0  0  0
    2.2887    9.9581    4.4240 C   0  0  0  0  0  0  0  0  0  0  0  0
    1.2738    9.1468    3.9378 N   0  0  0  0  0  0  0  0  0  0  0  0
    1.8785   11.2956    4.9132 C   0  0  0  0  0  0  0  0  0  0  0  0
    1.8494   12.4358    4.0411 O   0  0  0  0  0  0  0  0  0  0  0  0
    0.6181   11.8869    4.5494 O   0  0  0  0  0  0  0  0  0  0  0  0
   -0.6452    5.5743    1.4850 C   0  0  0  0  0  0  0  0  0  0  0  0
   -0.7990    6.0448    0.2281 N   0  0  0  0  0  0  0  0  0  0  0  0
   -1.8480    5.5720   -0.4480 C   0  0  0  0  0  0  0  0  0  0  0  0
   -2.7503    4.6940    0.0093 N   0  0  0  0  0  0  0  0  0  0  0  0
   -2.5868    4.2471    1.2569 C   0  0  0  0  0  0  0  0  0  0  0  0
   -1.5349    4.6679    2.0843 C   0  0  0  0  0  0  0  0  0  0  0  0
   -1.4459    4.1671    3.4080 C   0  0  0  0  0  0  0  0  0  0  0  0
   -2.3692    3.2241    3.8661 C   0  0  0  0  0  0  0  0  0  0  0  0
   -3.3743    2.7685    3.0246 C   0  0  0  0  0  0  0  0  0  0  0  0
   -3.4911    3.3099    1.7437 C   0  0  0  0  0  0  0  0  0  0  0  0
   -4.2844    1.8046    3.3603 O   0  0  0  0  0  0  0  0  0  0  0  0
   -3.8881    0.9135    4.4102 C   0  0  2  0  0  0  0  0  0  0  0  0
   -3.2334    1.5823    5.5956 C   0  0  0  0  0  0  0  0  0  0  0  0
   -3.3919    1.2323    6.7571 O   0  0  0  0  0  0  0  0  0  0  0  0
   -2.2908    2.7091    5.2383 C   0  0  0  0  0  0  0  0  0  0  0  0
   -1.5179    3.1756    6.0599 O   0  0  0  0  0  0  0  0  0  0  0  0
   -3.0316   -0.1929    3.8760 C   0  0  1  0  0  0  0  0  0  0  0  0
   -1.7785    0.1908    3.2557 O   0  0  0  0  0  0  0  0  0  0  0  0
   -2.9758   -1.3525    4.7086 O   0  0  0  0  0  0  0  0  0  0  0  0
   -3.5437   -1.5093    3.4986 C   0  0  0  0  0  0  0  0  0  0  0  0
   -3.2236   -2.2328    2.5810 O   0  0  0  0  0  0  0  0  0  0  0  0
    2.8526    2.1140    0.8399 C   0  0  0  0  0  0  0  0  0  0  0  0
    2.3838    2.0611   -0.2894 O   0  0  0  0  0  0  0  0  0  0  0  0
    3.6026    0.9184    1.3635 C   0  0  0  0  0  0  0  0  0  0  0  0
    3.8429   -0.0850    0.5693 N   0  0  0  0  0  0  0  0  0  0  0  0
    4.0814    0.9012    2.8007 C   0  0  0  0  0  0  0  0  0  0  0  0
    4.9064    0.0979    3.2008 O   0  0  0  0  0  0  0  0  0  0  0  0
  1  2  1  0  0  0  0
  2  3  2  0  0  0  0
  3  4  1  0  0  0  0
  3 50  1  0  0  0  0
  4  5  1  0  0  0  0
  5  6  1  6  0  0  0
  5 46  1  0  0  0  0
  6  7  1  0  0  0  0
  7  8  2  0  0  0  0
  7 12  1  0  0  0  0
  8  9  1  0  0  0  0
  8 25  1  0  0  0  0
  9 10  1  0  0  0  0
 10 11  2  0  0  0  0
 10 21  1  0  0  0  0
 11 12  1  0  0  0  0
 11 13  1  0  0  0  0
 13 14  2  0  0  0  0
 13 19  1  0  0  0  0
 14 15  1  0  0  0  0
 15 16  2  0  0  0  0
 15 17  1  0  0  0  0
 17 18  2  0  0  0  0
 18 19  1  0  0  0  0
 19 20  2  0  0  0  0
 20 21  1  0  0  0  0
 20 22  1  0  0  0  0
 22 23  1  0  0  0  0
 22 24  1  0  0  0  0
 23 24  1  0  0  0  0
 25 26  2  0  0  0  0
 25 30  1  0  0  0  0
 26 27  1  0  0  0  0
 27 28  2  0  0  0  0
 28 29  1  0  0  0  0
 29 30  2  0  0  0  0
 29 34  1  0  0  0  0
 30 31  1  0  0  0  0
 31 32  2  0  0  0  0
 32 33  1  0  0  0  0
 32 39  1  0  0  0  0
 33 34  2  0  0  0  0
 33 35  1  0  0  0  0
 36 35  1  6  0  0  0
 36 37  1  0  0  0  0
 36 41  1  0  0  0  0
 37 38  2  0  0  0  0
 37 39  1  0  0  0  0
 39 40  2  0  0  0  0
 41 42  1  6  0  0  0
 41 43  1  0  0  0  0
 41 44  1  0  0  0  0
 43 44  1  0  0  0  0
 44 45  2  0  0  0  0
 46 47  2  0  0  0  0
 46 48  1  0  0  0  0
 48 49  2  0  0  0  0
 48 50  1  0  0  0  0
 50 51  2  0  0  0  0
M  END
$$$$