
 OpenBabel11212021523D

 54 62  0  0  1  0  0  0  0  0999 V2000
    0.7901   -0.8828    1.7558 O   0  0  0  0  0  0  0  0  0  0  0  0
    0.2843    0.3916    1.7745 C   0  0  0  0  0  0  0  0  0  0  0  0
    1.0083    1.4705    1.4537 C   0  0  0  0  0  0  0  0  0  0  0  0
    2.3578    1.3874    1.1204 O   0  0  0  0  0  0  0  0  0  0  0  0
    2.6761    2.1118   -0.0680 C   0  0  2  0  0  0  0  0  0  0  0  0
    4.1166    2.2213   -0.2693 O   0  0  0  0  0  0  0  0  0  0  0  0
    4.8839    1.0767   -0.3746 C   0  0  0  0  0  0  0  0  0  0  0  0
    6.1825    1.0797    0.0078 C   0  0  0  0  0  0  0  0  0  0  0  0
    6.9820   -0.0706   -0.0519 O   0  0  0  0  0  0  0  0  0  0  0  0
    6.4270   -1.2852   -0.4890 C   0  0  0  0  0  0  0  0  0  0  0  0
    5.1717   -1.3449   -0.9744 C   0  0  0  0  0  0  0  0  0  0  0  0
    4.2630   -0.1496   -1.0023 C   0  0  0  0  0  0  0  0  0  0  0  0
    4.5587   -2.6356   -1.4521 C   0  0  3  0  0  0  0  0  0  0  0  0
    4.2531   -2.5123   -2.8296 O   0  0  0  0  0  0  0  0  0  0  0  0
    3.6085   -3.5864   -3.3729 C   0  0  0  0  0  0  0  0  0  0  0  0
    2.9965   -3.5097   -4.4234 O   0  0  0  0  0  0  0  0  0  0  0  0
    3.6673   -4.7178   -2.6247 O   0  0  0  0  0  0  0  0  0  0  0  0
    4.8725   -5.0018   -1.9272 C   0  0  3  0  0  0  0  0  0  0  0  0
    5.5000   -3.7740   -1.3567 C   0  0  0  0  0  0  0  0  0  0  0  0
    6.7418   -3.6591   -0.8352 C   0  0  0  0  0  0  0  0  0  0  0  0
    7.2066   -2.4212   -0.4011 O   0  3  0  0  0  0  0  0  0  0  0  0
    7.6895   -4.7926   -0.6675 C   0  0  0  0  0  0  0  0  0  0  0  0
    9.1077   -4.5675   -0.7411 O   0  0  0  0  0  0  0  0  0  0  0  0
    8.4940   -4.8902    0.5200 O   0  0  0  0  0  0  0  0  0  0  0  0
    4.5748   -5.8140   -0.8110 O   0  0  0  0  0  0  0  0  0  0  0  0
    6.8894    2.3086    0.4971 C   0  0  0  0  0  0  0  0  0  0  0  0
    7.4981    3.1379   -0.4542 C   0  0  0  0  0  0  0  0  0  0  0  0
    8.1130    4.2745   -0.0963 N   0  3  0  0  0  0  0  0  0  0  0  0
    8.7011    5.0357   -1.0400 F   0  0  0  0  0  0  0  0  0  0  0  0
    8.1779    4.6831    1.1530 N   0  0  0  0  0  0  0  0  0  0  0  0
    7.6043    3.9284    2.1122 C   0  0  0  0  0  0  0  0  0  0  0  0
    7.8325    4.6643    3.7788 P   0  3  3  0  0  0  0  0  0  0  0  0
    6.7798    3.5847    4.7613 C   0  0  0  0  0  0  0  0  0  0  0  0
    6.2900    2.3802    4.2642 C   0  0  0  0  0  0  0  0  0  0  0  0
    6.3719    1.9570    2.9135 C   0  0  0  0  0  0  0  0  0  0  0  0
    6.9457    2.7094    1.8547 C   0  0  0  0  0  0  0  0  0  0  0  0
    5.5279    1.5441    5.2009 C   0  0  0  0  0  0  0  0  0  0  0  0
    5.4588    0.3373    5.0397 O   0  0  0  0  0  0  0  0  0  0  0  0
    4.7268    2.2829    6.2547 C   0  0  0  0  0  0  0  0  0  0  0  0
    3.7259    1.7715    6.7350 O   0  0  0  0  0  0  0  0  0  0  0  0
    5.0857    3.7441    6.4036 C   0  0  1  0  0  0  0  0  0  0  0  0
    6.4612    3.9953    6.0387 O   0  0  0  0  0  0  0  0  0  0  0  0
    4.1517    4.6495    5.6408 C   0  0  1  0  0  0  0  0  0  0  0  0
    4.4412    6.0637    5.7329 O   0  0  0  0  0  0  0  0  0  0  0  0
    3.8421    4.1737    4.3212 O   0  0  0  0  0  0  0  0  0  0  0  0
    2.8028    4.3116    5.1770 C   0  0  0  0  0  0  0  0  0  0  0  0
    1.8130    4.9839    5.0434 O   0  0  0  0  0  0  0  0  0  0  0  0
    9.2131    3.9731    4.0983 F   0  0  0  0  0  0  0  0  0  0  0  0
    2.2455    3.5719   -0.0515 C   0  0  0  0  0  0  0  0  0  0  0  0
    2.6440    4.4299   -0.8262 O   0  0  0  0  0  0  0  0  0  0  0  0
    1.2922    3.8922    1.0649 C   0  0  0  0  0  0  0  0  0  0  0  0
    1.4125    4.9269    1.6942 O   0  0  0  0  0  0  0  0  0  0  0  0
    0.3374    2.8014    1.4809 C   0  0  0  0  0  0  0  0  0  0  0  0
   -0.8354    3.0048    1.7216 O   0  0  0  0  0  0  0  0  0  0  0  0
  1  2  1  0  0  0  0
  2  3  2  0  0  0  0
  3  4  1  0  0  0  0
  3 53  1  0  0  0  0
  4  5  1  0  0  0  0
  5  6  1  1  0  0  0
  5 49  1  0  0  0  0
  6  7  1  0  0  0  0
  7  8  2  0  0  0  0
  7 12  1  0  0  0  0
  8  9  1  0  0  0  0
  8 26  1  0  0  0  0
  9 10  1  0  0  0  0
 10 11  2  0  0  0  0
 10 21  1  0  0  0  0
 11 12  1  0  0  0  0
 11 13  1  0  0  0  0
 13 14  1  0  0  0  0
 13 19  1  0  0  0  0
 14 15  1  0  0  0  0
 15 16  2  0  0  0  0
 15 17  1  0  0  0  0
 17 18  1  0  0  0  0
 18 19  1  0  0  0  0
 18 25  1  0  0  0  0
 19 20  2  0  0  0  0
 20 21  1  0  0  0  0
 20 22  1  0  0  0  0
 22 23  1  0  0  0  0
 22 24  1  0  0  0  0
 23 24  1  0  0  0  0
 26 27  2  0  0  0  0
 26 36  1  0  0  0  0
 27 28  1  0  0  0  0
 28 29  1  0  0  0  0
 28 30  2  0  0  0  0
 30 31  1  0  0  0  0
 31 32  2  0  0  0  0
 31 36  1  0  0  0  0
 32 33  1  0  0  0  0
 32 48  1  0  0  0  0
 33 34  2  0  0  0  0
 33 42  1  0  0  0  0
 34 35  1  0  0  0  0
 34 37  1  0  0  0  0
 35 36  2  0  0  0  0
 37 38  2  0  0  0  0
 37 39  1  0  0  0  0
 39 40  2  0  0  0  0
 41 39  1  6  0  0  0
 41 42  1  0  0  0  0
 41 43  1  0  0  0  0
 43 44  1  1  0  0  0
 43 45  1  0  0  0  0
 43 46  1  0  0  0  0
 45 46  1  0  0  0  0
 46 47  2  0  0  0  0
 49 50  2  0  0  0  0
 49 51  1  0  0  0  0
 51 52  2  0  0  0  0
 51 53  1  0  0  0  0
 53 54  2  0  0  0  0
M  CHG  3  21   1  28   1  32   1
M  END
$$$$