
 OpenBabel11222002383D

 54 63  0  0  1  0  0  0  0  0999 V2000
   -0.2744    0.5610   -4.7556 O   0  0  0  0  0  0  0  0  0  0  0  0
    0.6072    1.1192   -3.8636 C   0  0  0  0  0  0  0  0  0  0  0  0
    1.4490    0.3794   -3.1331 C   0  0  0  0  0  0  0  0  0  0  0  0
    1.4302   -1.0086   -3.2417 O   0  0  0  0  0  0  0  0  0  0  0  0
    2.6546   -1.6626   -2.8850 C   0  0  2  0  0  0  0  0  0  0  0  0
    2.5770   -3.0867   -3.0759 O   0  0  0  0  0  0  0  0  0  0  0  0
    2.2511   -3.5579   -4.3451 C   0  0  0  0  0  0  0  0  0  0  0  0
    1.8738   -4.8431   -4.5744 C   0  0  0  0  0  0  0  0  0  0  0  0
    1.6884   -5.3019   -5.9061 O   0  0  0  0  0  0  0  0  0  0  0  0
    2.0952   -4.5372   -7.0012 C   0  0  0  0  0  0  0  0  0  0  0  0
    2.4498   -3.2541   -6.8428 C   0  0  0  0  0  0  0  0  0  0  0  0
    2.4418   -2.6010   -5.5043 C   0  0  0  0  0  0  0  0  0  0  0  0
    2.8940   -2.3902   -7.9888 C   0  0  3  0  0  0  0  0  0  0  0  0
    4.2341   -2.0167   -7.7249 O   0  0  0  0  0  0  0  0  0  0  0  0
    4.8868   -1.2758   -8.6588 C   0  0  0  0  0  0  0  0  0  0  0  0
    5.8843   -0.6380   -8.3658 O   0  0  0  0  0  0  0  0  0  0  0  0
    4.3743   -1.3073   -9.9110 O   0  0  0  0  0  0  0  0  0  0  0  0
    3.3761   -2.2229  -10.3480 C   0  0  3  0  0  0  0  0  0  0  0  0
    2.9061   -3.1288   -9.2665 C   0  0  0  0  0  0  0  0  0  0  0  0
    2.5409   -4.4262   -9.3700 C   0  0  0  0  0  0  0  0  0  0  0  0
    2.1244   -5.1334   -8.2459 O   0  3  0  0  0  0  0  0  0  0  0  0
    2.5716   -5.1831  -10.6427 C   0  0  0  0  0  0  0  0  0  0  0  0
    3.7413   -5.9134  -11.0318 O   0  0  0  0  0  0  0  0  0  0  0  0
    2.5501   -6.6203  -10.6345 O   0  0  0  0  0  0  0  0  0  0  0  0
    2.2265   -1.4918  -10.7276 O   0  0  0  0  0  0  0  0  0  0  0  0
    1.7453   -5.9669   -3.5582 C   0  0  0  0  0  0  0  0  0  0  0  0
    2.0192   -7.2525   -4.0636 C   0  0  0  0  0  0  0  0  0  0  0  0
    2.0503   -8.3391   -3.2194 C   0  0  0  0  0  0  0  0  0  0  0  0
    2.3023   -9.5463   -3.7380 F   0  0  0  0  0  0  0  0  0  0  0  0
    1.8905   -8.2484   -1.8981 N   0  0  0  0  0  0  0  0  0  0  0  0
    1.6265   -7.0555   -1.3647 C   0  0  0  0  0  0  0  0  0  0  0  0
    1.4516   -5.8724   -2.1470 C   0  0  0  0  0  0  0  0  0  0  0  0
    0.9987   -4.7202   -1.4414 C   0  0  0  0  0  0  0  0  0  0  0  0
    0.9927   -4.6943   -0.0431 C   0  0  0  0  0  0  0  0  0  0  0  0
    1.3228   -5.8155    0.7082 C   0  0  0  0  0  0  0  0  0  0  0  0
    1.5774   -7.0134    0.0437 C   0  0  0  0  0  0  0  0  0  0  0  0
    1.5938   -8.2105    0.7860 N   0  0  0  0  0  0  0  0  0  0  0  0
    1.3171   -5.8343    2.0911 O   0  0  0  0  0  0  0  0  0  0  0  0
    1.6428   -4.6272    2.8324 C   0  0  2  0  0  0  0  0  0  0  0  0
    1.0013   -3.5296    2.1374 C   0  0  0  0  0  0  0  0  0  0  0  0
    0.5254   -2.3575    2.2495 O   0  3  0  0  0  0  0  0  0  0  0  0
    0.2225   -2.3781    0.8488 O   0  3  0  0  0  0  0  0  0  0  0  0
    0.6967   -3.5646    0.7647 C   0  0  0  0  0  0  0  0  0  0  0  0
    3.1335   -4.4976    2.9914 C   0  0  1  0  0  0  0  0  0  0  0  0
    3.7817   -5.5306    3.7335 O   0  0  0  0  0  0  0  0  0  0  0  0
    3.8488   -3.9599    1.9145 O   0  0  0  0  0  0  0  0  0  0  0  0
    3.7317   -3.1383    3.0047 C   0  0  0  0  0  0  0  0  0  0  0  0
    3.0360   -2.1436    3.0410 O   0  0  0  0  0  0  0  0  0  0  0  0
    2.7656   -1.3641   -1.4065 C   0  0  0  0  0  0  0  0  0  0  0  0
    2.4553   -2.1111   -0.4757 O   0  0  0  0  0  0  0  0  0  0  0  0
    3.0079    0.1004   -1.1785 C   0  0  0  0  0  0  0  0  0  0  0  0
    3.6580    0.4357   -0.2082 O   0  0  0  0  0  0  0  0  0  0  0  0
    2.3192    1.0713   -2.1286 C   0  0  0  0  0  0  0  0  0  0  0  0
    2.4360    2.2754   -2.0209 O   0  0  0  0  0  0  0  0  0  0  0  0
  1  2  1  0  0  0  0
  2  3  2  0  0  0  0
  3  4  1  0  0  0  0
  3 53  1  0  0  0  0
  4  5  1  0  0  0  0
  5  6  1  1  0  0  0
  5 49  1  0  0  0  0
  6  7  1  0  0  0  0
  7  8  2  0  0  0  0
  7 12  1  0  0  0  0
  8  9  1  0  0  0  0
  8 26  1  0  0  0  0
  9 10  1  0  0  0  0
 10 11  2  0  0  0  0
 10 21  1  0  0  0  0
 11 12  1  0  0  0  0
 11 13  1  0  0  0  0
 13 14  1  0  0  0  0
 13 19  1  0  0  0  0
 14 15  1  0  0  0  0
 15 16  2  0  0  0  0
 15 17  1  0  0  0  0
 17 18  1  0  0  0  0
 18 19  1  0  0  0  0
 18 25  1  0  0  0  0
 19 20  2  0  0  0  0
 20 21  1  0  0  0  0
 20 22  1  0  0  0  0
 22 23  1  0  0  0  0
 22 24  1  0  0  0  0
 23 24  1  0  0  0  0
 26 27  2  0  0  0  0
 26 32  1  0  0  0  0
 27 28  1  0  0  0  0
 28 29  1  0  0  0  0
 28 30  2  0  0  0  0
 30 31  1  0  0  0  0
 31 32  2  0  0  0  0
 31 36  1  0  0  0  0
 32 33  1  0  0  0  0
 33 34  2  0  0  0  0
 34 35  1  0  0  0  0
 34 43  1  0  0  0  0
 35 36  2  0  0  0  0
 35 38  1  0  0  0  0
 36 37  1  0  0  0  0
 39 38  1  6  0  0  0
 39 40  1  0  0  0  0
 39 44  1  0  0  0  0
 40 41  2  0  0  0  0
 40 43  1  0  0  0  0
 41 42  1  0  0  0  0
 42 43  2  0  0  0  0
 44 45  1  1  0  0  0
 44 46  1  0  0  0  0
 44 47  1  0  0  0  0
 46 47  1  0  0  0  0
 47 48  2  0  0  0  0
 49 50  2  0  0  0  0
 49 51  1  0  0  0  0
 51 52  2  0  0  0  0
 51 53  1  0  0  0  0
 53 54  2  0  0  0  0
M  CHG  3  21   1  41   1  42   1
M  END
$$$$