
 OpenBabel11212019323D

 55 63  0  0  1  0  0  0  0  0999 V2000
   -1.9711    3.9796   -1.9668 O   0  0  0  0  0  0  0  0  0  0  0  0
   -1.0712    4.0443   -2.9997 C   0  0  0  0  0  0  0  0  0  0  0  0
    0.2301    4.2788   -2.7984 C   0  0  0  0  0  0  0  0  0  0  0  0
    0.7002    4.4822   -1.5151 O   0  0  0  0  0  0  0  0  0  0  0  0
    2.0593    4.1417   -1.2968 C   0  0  2  0  0  0  0  0  0  0  0  0
    2.4442    4.3165    0.0889 O   0  0  0  0  0  0  0  0  0  0  0  0
    2.3790    5.5942    0.6380 C   0  0  0  0  0  0  0  0  0  0  0  0
    3.2220    5.9669    1.6228 C   0  0  0  0  0  0  0  0  0  0  0  0
    3.2485    7.2629    2.1505 O   0  0  0  0  0  0  0  0  0  0  0  0
    2.3497    8.2258    1.6776 C   0  0  0  0  0  0  0  0  0  0  0  0
    1.4108    7.9136    0.7673 C   0  0  0  0  0  0  0  0  0  0  0  0
    1.3092    6.5477    0.1625 C   0  0  0  0  0  0  0  0  0  0  0  0
    0.3922    8.9123    0.2840 C   0  0  3  0  0  0  0  0  0  0  0  0
   -0.8754    8.4525    0.7165 O   0  0  0  0  0  0  0  0  0  0  0  0
   -1.9609    9.2461    0.5145 C   0  0  0  0  0  0  0  0  0  0  0  0
   -3.0952    8.8154    0.6387 O   0  0  0  0  0  0  0  0  0  0  0  0
   -1.7059   10.5342    0.1817 O   0  0  0  0  0  0  0  0  0  0  0  0
   -0.4553   11.1736    0.4006 C   0  0  3  0  0  0  0  0  0  0  0  0
    0.5894   10.2420    0.8990 C   0  0  0  0  0  0  0  0  0  0  0  0
    1.5715   10.5051    1.7885 C   0  0  0  0  0  0  0  0  0  0  0  0
    2.4478    9.5031    2.1841 O   0  3  0  0  0  0  0  0  0  0  0  0
    1.7749   11.8306    2.4169 C   0  0  0  0  0  0  0  0  0  0  0  0
    1.1381   12.1634    3.6560 O   0  0  0  0  0  0  0  0  0  0  0  0
    2.5630   11.9537    3.6137 O   0  0  0  0  0  0  0  0  0  0  0  0
    0.0393   11.6520   -0.8346 O   0  0  0  0  0  0  0  0  0  0  0  0
    4.1960    5.0418    2.2458 C   0  0  0  0  0  0  0  0  0  0  0  0
    5.4689    4.9422    1.6959 C   0  0  0  0  0  0  0  0  0  0  0  0
    6.3901    4.1631    2.2689 N   0  3  0  0  0  0  0  0  0  0  0  0
    7.5982    4.0284    1.6897 F   0  0  0  0  0  0  0  0  0  0  0  0
    6.1675    3.5169    3.3914 N   0  0  0  0  0  0  0  0  0  0  0  0
    4.9564    3.5105    3.9538 C   0  0  0  0  0  0  0  0  0  0  0  0
    3.8958    4.2321    3.3696 C   0  0  0  0  0  0  0  0  0  0  0  0
    2.5969    4.0680    3.9079 C   0  0  0  0  0  0  0  0  0  0  0  0
    2.3589    3.1882    4.9761 C   0  0  0  0  0  0  0  0  0  0  0  0
    0.9842    2.8920    5.3890 C   0  0  0  0  0  0  0  0  0  0  0  0
    0.0379    3.4211    4.8307 O   0  0  0  0  0  0  0  0  0  0  0  0
    0.8093    1.8669    6.4830 C   0  0  0  0  0  0  0  0  0  0  0  0
   -0.2292    1.2317    6.5766 O   0  0  0  0  0  0  0  0  0  0  0  0
    2.0079    1.7188    7.3904 C   0  0  1  0  0  0  0  0  0  0  0  0
    3.2687    1.7292    6.6943 O   0  0  0  0  0  0  0  0  0  0  0  0
    3.4112    2.5535    5.6112 C   0  0  0  0  0  0  0  0  0  0  0  0
    4.7068    2.7481    5.1090 C   0  0  0  0  0  0  0  0  0  0  0  0
    5.7195    2.1219    5.8078 O   0  0  0  0  0  0  0  0  0  0  0  0
    7.0184    2.4060    5.3388 F   0  0  0  0  0  0  0  0  0  0  0  0
    1.9657    2.7011    8.5342 C   0  0  1  0  0  0  0  0  0  0  0  0
    0.8239    2.6189    9.4053 O   0  0  0  0  0  0  0  0  0  0  0  0
    3.2101    2.9545    9.1962 O   0  0  0  0  0  0  0  0  0  0  0  0
    2.6663    3.9735    8.5173 C   0  0  0  0  0  0  0  0  0  0  0  0
    3.0954    4.6521    7.5982 O   0  0  0  0  0  0  0  0  0  0  0  0
    2.9905    4.8882   -2.2407 C   0  0  0  0  0  0  0  0  0  0  0  0
    3.9797    5.5247   -1.8964 O   0  0  0  0  0  0  0  0  0  0  0  0
    2.5506    4.7763   -3.6781 C   0  0  0  0  0  0  0  0  0  0  0  0
    3.3475    5.0338   -4.5643 O   0  0  0  0  0  0  0  0  0  0  0  0
    1.1325    4.3270   -3.9854 C   0  0  0  0  0  0  0  0  0  0  0  0
    0.7946    4.0092   -5.1113 O   0  0  0  0  0  0  0  0  0  0  0  0
  1  2  1  0  0  0  0
  2  3  2  0  0  0  0
  3  4  1  0  0  0  0
  3 54  1  0  0  0  0
  4  5  1  0  0  0  0
  5  6  1  1  0  0  0
  5 50  1  0  0  0  0
  6  7  1  0  0  0  0
  7  8  2  0  0  0  0
  7 12  1  0  0  0  0
  8  9  1  0  0  0  0
  8 26  1  0  0  0  0
  9 10  1  0  0  0  0
 10 11  2  0  0  0  0
 10 21  1  0  0  0  0
 11 12  1  0  0  0  0
 11 13  1  0  0  0  0
 13 14  1  0  0  0  0
 13 19  1  0  0  0  0
 14 15  1  0  0  0  0
 15 16  2  0  0  0  0
 15 17  1  0  0  0  0
 17 18  1  0  0  0  0
 18 19  1  0  0  0  0
 18 25  1  0  0  0  0
 19 20  2  0  0  0  0
 20 21  1  0  0  0  0
 20 22  1  0  0  0  0
 22 23  1  0  0  0  0
 22 24  1  0  0  0  0
 23 24  1  0  0  0  0
 26 27  2  0  0  0  0
 26 32  1  0  0  0  0
 27 28  1  0  0  0  0
 28 29  1  0  0  0  0
 28 30  2  0  0  0  0
 30 31  1  0  0  0  0
 31 32  2  0  0  0  0
 31 42  1  0  0  0  0
 32 33  1  0  0  0  0
 33 34  2  0  0  0  0
 34 35  1  0  0  0  0
 34 41  1  0  0  0  0
 35 36  2  0  0  0  0
 35 37  1  0  0  0  0
 37 38  2  0  0  0  0
 39 37  1  6  0  0  0
 39 40  1  0  0  0  0
 39 45  1  0  0  0  0
 40 41  1  0  0  0  0
 41 42  2  0  0  0  0
 42 43  1  0  0  0  0
 43 44  1  0  0  0  0
 45 46  1  1  0  0  0
 45 47  1  0  0  0  0
 45 48  1  0  0  0  0
 47 48  1  0  0  0  0
 48 49  2  0  0  0  0
 50 51  2  0  0  0  0
 50 52  1  0  0  0  0
 52 53  2  0  0  0  0
 52 54  1  0  0  0  0
 54 55  2  0  0  0  0
M  CHG  2  21   1  28   1
M  END
$$$$