
 OpenBabel11212016503D

 54 62  0  0  1  0  0  0  0  0999 V2000
   -1.0290   -2.4654   -4.4120 O   0  0  0  0  0  0  0  0  0  0  0  0
   -0.5812   -1.4319   -3.6277 C   0  0  0  0  0  0  0  0  0  0  0  0
    0.2753   -1.5968   -2.6108 C   0  0  0  0  0  0  0  0  0  0  0  0
    0.7268   -2.8559   -2.2624 O   0  0  0  0  0  0  0  0  0  0  0  0
    2.0378   -2.8605   -1.7121 C   0  0  2  0  0  0  0  0  0  0  0  0
    2.4325   -4.2150   -1.3722 O   0  0  0  0  0  0  0  0  0  0  0  0
    2.4215   -5.1448   -2.4044 C   0  0  0  0  0  0  0  0  0  0  0  0
    2.1444   -6.4574   -2.2016 C   0  0  0  0  0  0  0  0  0  0  0  0
    2.1358   -7.3697   -3.2730 O   0  0  0  0  0  0  0  0  0  0  0  0
    2.5777   -6.9850   -4.5426 C   0  0  0  0  0  0  0  0  0  0  0  0
    2.9260   -5.7122   -4.7927 C   0  0  0  0  0  0  0  0  0  0  0  0
    2.8402   -4.6425   -3.7588 C   0  0  0  0  0  0  0  0  0  0  0  0
    3.4207   -5.2577   -6.1325 C   0  0  3  0  0  0  0  0  0  0  0  0
    4.7584   -4.8318   -5.9548 O   0  0  0  0  0  0  0  0  0  0  0  0
    5.4537   -4.4416   -7.0552 C   0  0  0  0  0  0  0  0  0  0  0  0
    6.4822   -3.7938   -6.9548 O   0  0  0  0  0  0  0  0  0  0  0  0
    4.9392   -4.8189   -8.2496 O   0  0  0  0  0  0  0  0  0  0  0  0
    3.9632   -5.8433   -8.4060 C   0  0  3  0  0  0  0  0  0  0  0  0
    3.4544   -6.3612   -7.1105 C   0  0  0  0  0  0  0  0  0  0  0  0
    3.0774   -7.6244   -6.8129 C   0  0  0  0  0  0  0  0  0  0  0  0
    2.6510   -7.9478   -5.5293 O   0  3  0  0  0  0  0  0  0  0  0  0
    3.1010   -8.7324   -7.7945 C   0  0  0  0  0  0  0  0  0  0  0  0
    4.2614   -9.5578   -7.9444 O   0  0  0  0  0  0  0  0  0  0  0  0
    3.0631  -10.0995   -7.3539 O   0  0  0  0  0  0  0  0  0  0  0  0
    2.8268   -5.2957   -9.0453 O   0  0  0  0  0  0  0  0  0  0  0  0
    1.8401   -7.0584   -0.8523 C   0  0  0  0  0  0  0  0  0  0  0  0
    1.1922   -6.2760    0.1070 C   0  0  0  0  0  0  0  0  0  0  0  0
    0.9475   -6.7315    1.3380 N   0  3  0  0  0  0  0  0  0  0  0  0
    0.3720   -5.9089    2.2361 F   0  0  0  0  0  0  0  0  0  0  0  0
    1.2433   -7.9563    1.7118 N   0  0  0  0  0  0  0  0  0  0  0  0
    1.8293   -8.7872    0.8509 C   0  0  0  0  0  0  0  0  0  0  0  0
    2.1733   -8.3894   -0.4608 C   0  0  0  0  0  0  0  0  0  0  0  0
    2.8325   -9.3538   -1.2674 C   0  0  0  0  0  0  0  0  0  0  0  0
    3.0765  -10.6602   -0.8185 C   0  0  0  0  0  0  0  0  0  0  0  0
    3.6864  -11.6404   -1.7202 C   0  0  0  0  0  0  0  0  0  0  0  0
    3.9860  -11.3278   -2.8629 O   0  0  0  0  0  0  0  0  0  0  0  0
    3.8669  -13.0346   -1.1635 C   0  0  0  0  0  0  0  0  0  0  0  0
    4.7467  -13.7599   -1.5975 O   0  0  0  0  0  0  0  0  0  0  0  0
    2.8953  -13.3804   -0.0551 C   0  0  1  0  0  0  0  0  0  0  0  0
    2.8045  -12.3239    0.9251 O   0  0  0  0  0  0  0  0  0  0  0  0
    2.6951  -11.0474    0.4492 C   0  0  0  0  0  0  0  0  0  0  0  0
    2.1038  -10.0912    1.2739 C   0  0  0  0  0  0  0  0  0  0  0  0
    1.7369  -10.4522    2.5142 F   0  0  0  0  0  0  0  0  0  0  0  0
    1.5441  -13.8162   -0.5818 C   0  0  1  0  0  0  0  0  0  0  0  0
    1.5417  -14.9682   -1.4441 O   0  0  0  0  0  0  0  0  0  0  0  0
    0.4654  -13.7713    0.3668 O   0  0  0  0  0  0  0  0  0  0  0  0
    0.3804  -12.9592   -0.6839 C   0  0  0  0  0  0  0  0  0  0  0  0
    0.2546  -11.7445   -0.7894 O   0  0  0  0  0  0  0  0  0  0  0  0
    2.0372   -2.0154   -0.4453 C   0  0  0  0  0  0  0  0  0  0  0  0
    2.4321   -2.4669    0.6325 O   0  0  0  0  0  0  0  0  0  0  0  0
    1.5772   -0.5870   -0.6318 C   0  0  3  0  0  0  0  0  0  0  0  0
    0.6909   -0.3792   -1.8403 C   0  0  0  0  0  0  0  0  0  0  0  0
    0.3232    0.7392   -2.1940 O   0  0  0  0  0  0  0  0  0  0  0  0
    0.9644   -0.1285    0.4986 F   0  0  0  0  0  0  0  0  0  0  0  0
  1  2  1  0  0  0  0
  2  3  2  0  0  0  0
  3  4  1  0  0  0  0
  3 52  1  0  0  0  0
  4  5  1  0  0  0  0
  5  6  1  1  0  0  0
  5 49  1  0  0  0  0
  6  7  1  0  0  0  0
  7  8  2  0  0  0  0
  7 12  1  0  0  0  0
  8  9  1  0  0  0  0
  8 26  1  0  0  0  0
  9 10  1  0  0  0  0
 10 11  2  0  0  0  0
 10 21  1  0  0  0  0
 11 12  1  0  0  0  0
 11 13  1  0  0  0  0
 13 14  1  0  0  0  0
 13 19  1  0  0  0  0
 14 15  1  0  0  0  0
 15 16  2  0  0  0  0
 15 17  1  0  0  0  0
 17 18  1  0  0  0  0
 18 19  1  0  0  0  0
 18 25  1  0  0  0  0
 19 20  2  0  0  0  0
 20 21  1  0  0  0  0
 20 22  1  0  0  0  0
 22 23  1  0  0  0  0
 22 24  1  0  0  0  0
 23 24  1  0  0  0  0
 26 27  2  0  0  0  0
 26 32  1  0  0  0  0
 27 28  1  0  0  0  0
 28 29  1  0  0  0  0
 28 30  2  0  0  0  0
 30 31  1  0  0  0  0
 31 32  2  0  0  0  0
 31 42  1  0  0  0  0
 32 33  1  0  0  0  0
 33 34  2  0  0  0  0
 34 35  1  0  0  0  0
 34 41  1  0  0  0  0
 35 36  2  0  0  0  0
 35 37  1  0  0  0  0
 37 38  2  0  0  0  0
 39 37  1  6  0  0  0
 39 40  1  0  0  0  0
 39 44  1  0  0  0  0
 40 41  1  0  0  0  0
 41 42  2  0  0  0  0
 42 43  1  0  0  0  0
 44 45  1  6  0  0  0
 44 46  1  0  0  0  0
 44 47  1  0  0  0  0
 46 47  1  0  0  0  0
 47 48  2  0  0  0  0
 49 50  2  0  0  0  0
 49 51  1  0  0  0  0
 51 52  1  0  0  0  0
 51 54  1  0  0  0  0
 52 53  2  0  0  0  0
M  CHG  2  21   1  28   1
M  END
$$$$