
 OpenBabel10252011423D

 52 59  0  0  1  0  0  0  0  0999 V2000
    1.2097    0.1927   -0.0523 O   0  0  0  0  0  0  0  0  0  0  0  0
    2.4259    0.0978   -0.1521 C   0  0  0  0  0  0  0  0  0  0  0  0
    2.9870   -1.1544   -0.2836 N   0  0  0  0  0  0  0  0  0  0  0  0
    4.2659   -1.2741   -0.1663 C   0  0  0  0  0  0  0  0  0  0  0  0
    5.1599   -0.1298    0.0520 C   0  0  0  0  0  0  0  0  0  0  0  0
    4.4565    1.1754   -0.0212 C   0  0  0  0  0  0  0  0  0  0  0  0
    3.1726    1.2580   -0.1406 N   0  0  0  0  0  0  0  0  0  0  0  0
    5.2791    2.4166    0.0356 C   0  0  0  0  0  0  0  0  0  0  0  0
    4.6139    3.7384   -0.1748 C   0  0  0  0  0  0  0  0  0  0  0  0
    5.6142    4.8655   -0.3459 C   0  0  0  0  0  0  0  0  0  0  0  0
    6.9163    4.6504   -0.0532 C   0  0  0  0  0  0  0  0  0  0  0  0
    7.4217    3.4046    0.3130 O   0  0  0  0  0  0  0  0  0  0  0  0
    6.5984    2.2947    0.2415 C   0  0  0  0  0  0  0  0  0  0  0  0
    7.2060    1.0680    0.3634 N   0  0  0  0  0  0  0  0  0  0  0  0
    6.4882   -0.1213    0.2679 C   0  0  0  0  0  0  0  0  0  0  0  0
    7.2496   -1.4018    0.3846 C   0  0  0  0  0  0  0  0  0  0  0  0
    6.7826   -2.4625    0.7542 O   0  0  0  0  0  0  0  0  0  0  0  0
    8.5495   -1.2336    0.0546 O   0  0  0  0  0  0  0  0  0  0  0  0
    7.9553    5.6966   -0.0641 C   0  0  0  0  0  0  0  0  0  0  0  0
    8.1184    6.3216    1.1214 N   0  0  0  0  0  0  0  0  0  0  0  0
    9.1256    7.1957    1.1874 C   0  0  0  0  0  0  0  0  0  0  0  0
    9.9951    7.4721    0.2065 N   0  0  0  0  0  0  0  0  0  0  0  0
    9.8241    6.8387   -0.9572 C   0  0  0  0  0  0  0  0  0  0  0  0
    8.7854    5.9216   -1.1738 C   0  0  0  0  0  0  0  0  0  0  0  0
    8.6595    5.2991   -2.4391 C   0  0  0  0  0  0  0  0  0  0  0  0
    9.5699    5.5853   -3.4597 C   0  0  0  0  0  0  0  0  0  0  0  0
   10.6238    6.4578   -3.2320 C   0  0  0  0  0  0  0  0  0  0  0  0
   10.7267    7.0856   -1.9880 C   0  0  0  0  0  0  0  0  0  0  0  0
   11.5897    6.7721   -4.1466 O   0  0  0  0  0  0  0  0  0  0  0  0
   11.6992    5.9208   -5.2926 C   0  0  2  0  0  0  0  0  0  0  0  0
   10.3946    5.3931   -5.8420 C   0  0  0  0  0  0  0  0  0  0  0  0
   10.1500    5.2510   -7.0316 O   0  0  0  0  0  0  0  0  0  0  0  0
    9.3989    4.9819   -4.7848 C   0  0  0  0  0  0  0  0  0  0  0  0
    8.4902    4.2034   -5.0277 O   0  0  0  0  0  0  0  0  0  0  0  0
   12.6479    4.7960   -5.0208 C   0  0  1  0  0  0  0  0  0  0  0  0
   12.3054    3.9056   -3.9292 O   0  0  0  0  0  0  0  0  0  0  0  0
   13.1636    4.1617   -6.1928 O   0  0  0  0  0  0  0  0  0  0  0  0
   14.0573    4.8022   -5.4143 C   0  0  0  0  0  0  0  0  0  0  0  0
   15.0261    4.3667   -4.8351 O   0  0  0  0  0  0  0  0  0  0  0  0
    5.1738    6.1219   -0.7454 O   0  0  0  0  0  0  0  0  0  0  0  0
    4.0233    6.1820   -1.5940 C   0  0  1  0  0  0  0  0  0  0  0  0
    2.8211    6.2671   -0.8250 O   0  0  0  0  0  0  0  0  0  0  0  0
    1.6720    6.1605   -1.6005 C   0  0  0  0  0  0  0  0  0  0  0  0
    0.5525    5.5851   -1.1254 C   0  0  0  0  0  0  0  0  0  0  0  0
    0.5125    5.1186    0.1628 O   0  0  0  0  0  0  0  0  0  0  0  0
   -0.6122    5.4258   -1.8331 O   0  0  0  0  0  0  0  0  0  0  0  0
    1.6617    6.7453   -2.9646 C   0  0  0  0  0  0  0  0  0  0  0  0
    0.8411    6.4668   -3.8230 O   0  0  0  0  0  0  0  0  0  0  0  0
    2.8164    7.6937   -3.2020 C   0  0  0  0  0  0  0  0  0  0  0  0
    2.6661    8.6921   -3.8849 O   0  0  0  0  0  0  0  0  0  0  0  0
    4.1381    7.3713   -2.5418 C   0  0  0  0  0  0  0  0  0  0  0  0
    5.1668    7.9505   -2.8571 O   0  0  0  0  0  0  0  0  0  0  0  0
  1  2  2  0  0  0  0
  2  3  1  0  0  0  0
  2  7  1  0  0  0  0
  3  4  2  0  0  0  0
  4  5  1  0  0  0  0
  5  6  1  0  0  0  0
  5 15  2  0  0  0  0
  6  7  2  0  0  0  0
  6  8  1  0  0  0  0
  8  9  1  0  0  0  0
  8 13  2  0  0  0  0
  9 10  1  0  0  0  0
 10 11  2  0  0  0  0
 10 40  1  0  0  0  0
 11 12  1  0  0  0  0
 11 19  1  0  0  0  0
 12 13  1  0  0  0  0
 13 14  1  0  0  0  0
 14 15  1  0  0  0  0
 15 16  1  0  0  0  0
 16 17  2  0  0  0  0
 16 18  1  0  0  0  0
 19 20  2  0  0  0  0
 19 24  1  0  0  0  0
 20 21  1  0  0  0  0
 21 22  2  0  0  0  0
 22 23  1  0  0  0  0
 23 24  2  0  0  0  0
 23 28  1  0  0  0  0
 24 25  1  0  0  0  0
 25 26  2  0  0  0  0
 26 27  1  0  0  0  0
 26 33  1  0  0  0  0
 27 28  2  0  0  0  0
 27 29  1  0  0  0  0
 30 29  1  1  0  0  0
 30 31  1  0  0  0  0
 30 35  1  0  0  0  0
 31 32  2  0  0  0  0
 31 33  1  0  0  0  0
 33 34  2  0  0  0  0
 35 36  1  1  0  0  0
 35 37  1  0  0  0  0
 35 38  1  0  0  0  0
 37 38  1  0  0  0  0
 38 39  2  0  0  0  0
 41 40  1  1  0  0  0
 41 42  1  0  0  0  0
 41 51  1  0  0  0  0
 42 43  1  0  0  0  0
 43 44  2  0  0  0  0
 43 47  1  0  0  0  0
 44 45  1  0  0  0  0
 44 46  1  0  0  0  0
 47 48  2  0  0  0  0
 47 49  1  0  0  0  0
 49 50  2  0  0  0  0
 49 51  1  0  0  0  0
 51 52  2  0  0  0  0
M  END
$$$$