
 OpenBabel11212019453D

 56 64  0  0  1  0  0  0  0  0999 V2000
   -0.3388    0.0541   -5.4378 O   0  0  0  0  0  0  0  0  0  0  0  0
   -0.1611    0.5586   -4.1696 C   0  0  0  0  0  0  0  0  0  0  0  0
    0.3663   -0.1638   -3.1742 C   0  0  0  0  0  0  0  0  0  0  0  0
    0.6924   -1.4897   -3.3822 O   0  0  0  0  0  0  0  0  0  0  0  0
    1.8859   -1.9045   -2.7333 C   0  0  2  0  0  0  0  0  0  0  0  0
    2.2175   -3.2646   -3.0852 O   0  0  0  0  0  0  0  0  0  0  0  0
    2.1584   -3.6330   -4.4242 C   0  0  0  0  0  0  0  0  0  0  0  0
    1.9676   -4.9277   -4.7836 C   0  0  0  0  0  0  0  0  0  0  0  0
    1.9045   -5.3094   -6.1328 O   0  0  0  0  0  0  0  0  0  0  0  0
    2.2284   -4.3879   -7.1368 C   0  0  0  0  0  0  0  0  0  0  0  0
    2.5179   -3.1091   -6.8404 C   0  0  0  0  0  0  0  0  0  0  0  0
    2.3940   -2.5631   -5.4592 C   0  0  0  0  0  0  0  0  0  0  0  0
    2.9797   -2.1205   -7.8683 C   0  0  3  0  0  0  0  0  0  0  0  0
    4.3129   -1.7911   -7.5160 O   0  0  0  0  0  0  0  0  0  0  0  0
    5.0266   -0.9923   -8.3503 C   0  0  0  0  0  0  0  0  0  0  0  0
    6.0612   -0.4642   -7.9845 O   0  0  0  0  0  0  0  0  0  0  0  0
    4.5261   -0.8412   -9.5998 O   0  0  0  0  0  0  0  0  0  0  0  0
    3.5485   -1.7026  -10.1720 C   0  0  3  0  0  0  0  0  0  0  0  0
    3.0390   -2.7193   -9.2154 C   0  0  0  0  0  0  0  0  0  0  0  0
    2.6929   -4.0016   -9.4678 C   0  0  0  0  0  0  0  0  0  0  0  0
    2.2688   -4.8354   -8.4390 O   0  3  0  0  0  0  0  0  0  0  0  0
    2.7736   -4.6201  -10.8087 C   0  0  0  0  0  0  0  0  0  0  0  0
    3.9556   -5.3192  -11.2178 O   0  0  0  0  0  0  0  0  0  0  0  0
    2.7425   -6.0501  -10.9533 O   0  0  0  0  0  0  0  0  0  0  0  0
    2.4161   -0.9338  -10.5246 O   0  0  0  0  0  0  0  0  0  0  0  0
    1.8520   -6.0447   -3.7750 C   0  0  0  0  0  0  0  0  0  0  0  0
    2.6659   -5.9674   -2.6408 C   0  0  0  0  0  0  0  0  0  0  0  0
    2.6033   -6.8772   -1.6718 N   0  3  0  0  0  0  0  0  0  0  0  0
    3.4052   -6.7443   -0.5977 F   0  0  0  0  0  0  0  0  0  0  0  0
    1.7926   -7.9037   -1.7227 N   0  0  0  0  0  0  0  0  0  0  0  0
    0.9653   -8.0775   -2.7542 C   0  0  0  0  0  0  0  0  0  0  0  0
    0.9930   -7.1815   -3.8591 C   0  0  0  0  0  0  0  0  0  0  0  0
    0.1534   -7.4864   -4.9578 C   0  0  0  0  0  0  0  0  0  0  0  0
   -0.7240   -8.5809   -4.9351 C   0  0  0  0  0  0  0  0  0  0  0  0
   -1.5885   -8.8478   -6.0814 C   0  0  0  0  0  0  0  0  0  0  0  0
   -1.3055   -8.3687   -7.1701 O   0  0  0  0  0  0  0  0  0  0  0  0
   -2.8267   -9.6891   -5.8386 C   0  0  0  0  0  0  0  0  0  0  0  0
   -3.6513   -9.8167   -6.7292 O   0  0  0  0  0  0  0  0  0  0  0  0
   -2.9558  -10.2518   -4.4331 C   0  0  1  0  0  0  0  0  0  0  0  0
   -1.7094  -10.4264   -3.7389 O   0  0  0  0  0  0  0  0  0  0  0  0
   -0.8036   -9.4019   -3.8307 C   0  0  0  0  0  0  0  0  0  0  0  0
    0.0609   -9.1710   -2.7400 C   0  0  0  0  0  0  0  0  0  0  0  0
   -0.0487  -10.0779   -1.6376 N   0  0  0  0  0  0  0  0  0  0  0  0
    0.2826   -9.3119   -0.4637 F   0  0  0  0  0  0  0  0  0  0  0  0
    0.9257  -11.0803   -1.9933 F   0  0  0  0  0  0  0  0  0  0  0  0
   -4.0138   -9.5362   -3.6300 C   0  0  1  0  0  0  0  0  0  0  0  0
   -5.3433   -9.5091   -4.1457 O   0  0  0  0  0  0  0  0  0  0  0  0
   -3.9314   -9.7276   -2.1772 O   0  0  0  0  0  0  0  0  0  0  0  0
   -3.7244   -8.4889   -2.6676 C   0  0  0  0  0  0  0  0  0  0  0  0
   -2.7773   -7.7214   -2.5875 O   0  0  0  0  0  0  0  0  0  0  0  0
    1.6165   -1.8586   -1.2448 C   0  0  0  0  0  0  0  0  0  0  0  0
    1.7275   -2.8142   -0.4884 O   0  0  0  0  0  0  0  0  0  0  0  0
    1.1487   -0.4891   -0.7947 C   0  0  0  0  0  0  0  0  0  0  0  0
    1.3232   -0.1422    0.3614 O   0  0  0  0  0  0  0  0  0  0  0  0
    0.5220    0.4487   -1.8225 C   0  0  0  0  0  0  0  0  0  0  0  0
    0.2078    1.5957   -1.5601 O   0  0  0  0  0  0  0  0  0  0  0  0
  1  2  1  0  0  0  0
  2  3  2  0  0  0  0
  3  4  1  0  0  0  0
  3 55  1  0  0  0  0
  4  5  1  0  0  0  0
  5  6  1  6  0  0  0
  5 51  1  0  0  0  0
  6  7  1  0  0  0  0
  7  8  2  0  0  0  0
  7 12  1  0  0  0  0
  8  9  1  0  0  0  0
  8 26  1  0  0  0  0
  9 10  1  0  0  0  0
 10 11  2  0  0  0  0
 10 21  1  0  0  0  0
 11 12  1  0  0  0  0
 11 13  1  0  0  0  0
 13 14  1  0  0  0  0
 13 19  1  0  0  0  0
 14 15  1  0  0  0  0
 15 16  2  0  0  0  0
 15 17  1  0  0  0  0
 17 18  1  0  0  0  0
 18 19  1  0  0  0  0
 18 25  1  0  0  0  0
 19 20  2  0  0  0  0
 20 21  1  0  0  0  0
 20 22  1  0  0  0  0
 22 23  1  0  0  0  0
 22 24  1  0  0  0  0
 23 24  1  0  0  0  0
 26 27  2  0  0  0  0
 26 32  1  0  0  0  0
 27 28  1  0  0  0  0
 28 29  1  0  0  0  0
 28 30  2  0  0  0  0
 30 31  1  0  0  0  0
 31 32  2  0  0  0  0
 31 42  1  0  0  0  0
 32 33  1  0  0  0  0
 33 34  2  0  0  0  0
 34 35  1  0  0  0  0
 34 41  1  0  0  0  0
 35 36  2  0  0  0  0
 35 37  1  0  0  0  0
 37 38  2  0  0  0  0
 39 37  1  6  0  0  0
 39 40  1  0  0  0  0
 39 46  1  0  0  0  0
 40 41  1  0  0  0  0
 41 42  2  0  0  0  0
 42 43  1  0  0  0  0
 43 44  1  0  0  0  0
 43 45  1  0  0  0  0
 46 47  1  6  0  0  0
 46 48  1  0  0  0  0
 46 49  1  0  0  0  0
 48 49  1  0  0  0  0
 49 50  2  0  0  0  0
 51 52  2  0  0  0  0
 51 53  1  0  0  0  0
 53 54  2  0  0  0  0
 53 55  1  0  0  0  0
 55 56  2  0  0  0  0
M  CHG  2  21   1  28   1
M  END
$$$$