
 OpenBabel11252002043D

 52 61  0  0  1  0  0  0  0  0999 V2000
   -1.1755  -15.6729  -11.4633 O   0  0  0  0  0  0  0  0  0  0  0  0
   -1.0821  -15.2247  -12.7585 C   0  0  0  0  0  0  0  0  0  0  0  0
   -0.2790  -14.2154  -13.1195 C   0  0  0  0  0  0  0  0  0  0  0  0
    0.4894  -13.5695  -12.1670 O   0  0  0  0  0  0  0  0  0  0  0  0
    1.5657  -12.7715  -12.6513 C   0  0  2  0  0  0  0  0  0  0  0  0
    2.1850  -12.0184  -11.5852 O   0  0  0  0  0  0  0  0  0  0  0  0
    2.5591  -12.7694  -10.4858 C   0  0  0  0  0  0  0  0  0  0  0  0
    2.4576  -12.2943   -9.2230 C   0  0  0  0  0  0  0  0  0  0  0  0
    2.9788  -13.0193   -8.1445 O   0  0  0  0  0  0  0  0  0  0  0  0
    3.7605  -14.1397   -8.3651 C   0  0  0  0  0  0  0  0  0  0  0  0
    3.8835  -14.6903   -9.5805 C   0  0  0  0  0  0  0  0  0  0  0  0
    3.2115  -14.1109  -10.7726 C   0  0  0  0  0  0  0  0  0  0  0  0
    4.6887  -15.9090   -9.7348 C   0  0  0  0  0  0  0  0  0  0  0  0
    4.6791  -16.4958  -10.9500 N   0  0  0  0  0  0  0  0  0  0  0  0
    5.4119  -17.6132  -11.0661 C   0  0  0  0  0  0  0  0  0  0  0  0
    6.1434  -18.1743  -10.0936 N   0  0  0  0  0  0  0  0  0  0  0  0
    6.1254  -17.5505   -8.9019 C   0  0  0  0  0  0  0  0  0  0  0  0
    5.4101  -16.3972   -8.6581 C   0  0  0  0  0  0  0  0  0  0  0  0
    5.4337  -15.6865   -7.3360 C   0  0  3  0  0  0  0  0  0  0  0  0
    4.3980  -14.6561   -7.2713 N   0  0  0  0  0  0  0  0  0  0  0  0
    6.7769  -15.0492   -7.1213 C   0  0  0  0  0  0  0  0  0  0  0  0
    6.9761  -14.4883   -5.8200 O   0  0  0  0  0  0  0  0  0  0  0  0
    7.6356  -15.7193   -6.1995 O   0  0  0  0  0  0  0  0  0  0  0  0
    1.9425  -10.9573   -8.7861 C   0  0  0  0  0  0  0  0  0  0  0  0
    2.6563  -10.3641   -7.7440 C   0  0  0  0  0  0  0  0  0  0  0  0
    2.3296   -9.1626   -7.2671 N   0  3  0  0  0  0  0  0  0  0  0  0
    3.0340   -8.6561   -6.2372 F   0  0  0  0  0  0  0  0  0  0  0  0
    1.3518   -8.4409   -7.7715 N   0  0  0  0  0  0  0  0  0  0  0  0
    0.6211   -8.9326   -8.7740 C   0  0  0  0  0  0  0  0  0  0  0  0
    0.8388  -10.2246   -9.2972 C   0  0  0  0  0  0  0  0  0  0  0  0
   -0.0604  -10.6734  -10.2950 C   0  0  0  0  0  0  0  0  0  0  0  0
   -0.9925   -9.8151  -10.8949 C   0  0  0  0  0  0  0  0  0  0  0  0
   -1.1644   -8.5408  -10.4003 C   0  0  0  0  0  0  0  0  0  0  0  0
   -0.3870   -8.1335   -9.3197 C   0  0  0  0  0  0  0  0  0  0  0  0
   -0.5830   -6.9068   -8.8094 F   0  0  0  0  0  0  0  0  0  0  0  0
   -2.1060   -7.6854  -10.9000 O   0  0  0  0  0  0  0  0  0  0  0  0
   -2.3169   -7.8081  -12.3293 C   0  0  1  0  0  0  0  0  0  0  0  0
   -2.4950   -9.1697  -12.8675 C   0  0  0  0  0  0  0  0  0  0  0  0
   -3.0990   -9.4312  -13.8938 O   0  0  0  0  0  0  0  0  0  0  0  0
   -1.7300  -10.2284  -12.0989 C   0  0  0  0  0  0  0  0  0  0  0  0
   -1.6424  -11.3748  -12.5179 O   0  0  0  0  0  0  0  0  0  0  0  0
   -3.1370   -6.8168  -12.8999 O   0  0  0  0  0  0  0  0  0  0  0  0
   -1.7191   -6.7822  -13.2455 C   0  0  1  0  0  0  0  0  0  0  0  0
   -0.8134   -5.9566  -12.3961 O   0  0  0  0  0  0  0  0  0  0  0  0
   -1.3929   -5.3981  -13.4319 C   0  0  0  0  0  0  0  0  0  0  0  0
   -0.9573   -4.7380  -14.3478 O   0  0  0  0  0  0  0  0  0  0  0  0
    1.0496  -11.7614  -13.6486 C   0  0  0  0  0  0  0  0  0  0  0  0
    1.1076  -10.5425  -13.5523 O   0  0  0  0  0  0  0  0  0  0  0  0
    0.3912  -12.4511  -14.8061 C   0  0  0  0  0  0  0  0  0  0  0  0
    0.5067  -11.9812  -15.9252 O   0  0  0  0  0  0  0  0  0  0  0  0
   -0.2937  -13.7830  -14.5508 C   0  0  0  0  0  0  0  0  0  0  0  0
   -0.7563  -14.4513  -15.4597 O   0  0  0  0  0  0  0  0  0  0  0  0
  1  2  1  0  0  0  0
  2  3  2  0  0  0  0
  3  4  1  0  0  0  0
  3 51  1  0  0  0  0
  4  5  1  0  0  0  0
  5  6  1  1  0  0  0
  5 47  1  0  0  0  0
  6  7  1  0  0  0  0
  7  8  2  0  0  0  0
  7 12  1  0  0  0  0
  8  9  1  0  0  0  0
  8 24  1  0  0  0  0
  9 10  1  0  0  0  0
 10 11  2  0  0  0  0
 10 20  1  0  0  0  0
 11 12  1  0  0  0  0
 11 13  1  0  0  0  0
 13 14  2  0  0  0  0
 13 18  1  0  0  0  0
 14 15  1  0  0  0  0
 15 16  2  0  0  0  0
 16 17  1  0  0  0  0
 17 18  2  0  0  0  0
 18 19  1  0  0  0  0
 19 20  1  0  0  0  0
 19 21  1  0  0  0  0
 21 22  1  0  0  0  0
 21 23  1  0  0  0  0
 22 23  1  0  0  0  0
 24 25  2  0  0  0  0
 24 30  1  0  0  0  0
 25 26  1  0  0  0  0
 26 27  1  0  0  0  0
 26 28  2  0  0  0  0
 28 29  1  0  0  0  0
 29 30  2  0  0  0  0
 29 34  1  0  0  0  0
 30 31  1  0  0  0  0
 31 32  2  0  0  0  0
 32 33  1  0  0  0  0
 32 40  1  0  0  0  0
 33 34  2  0  0  0  0
 33 36  1  0  0  0  0
 34 35  1  0  0  0  0
 37 36  1  1  0  0  0
 37 38  1  0  0  0  0
 37 42  1  0  0  0  0
 37 43  1  0  0  0  0
 38 39  2  0  0  0  0
 38 40  1  0  0  0  0
 40 41  2  0  0  0  0
 43 42  1  1  0  0  0
 43 44  1  0  0  0  0
 43 45  1  0  0  0  0
 44 45  1  0  0  0  0
 45 46  2  0  0  0  0
 47 48  2  0  0  0  0
 47 49  1  0  0  0  0
 49 50  2  0  0  0  0
 49 51  1  0  0  0  0
 51 52  2  0  0  0  0
M  CHG  1  26   1
M  END
$$$$