
 OpenBabel09222006393D

 51 59  0  0  1  0  0  0  0  0999 V2000
    2.8475   -0.6304    6.9853 O   0  0  0  0  0  0  0  0  0  0  0  0
    3.1636   -1.1629    5.7647 C   0  0  0  0  0  0  0  0  0  0  0  0
    2.6737   -0.6885    4.6124 C   0  0  0  0  0  0  0  0  0  0  0  0
    1.7752    0.3611    4.5731 O   0  0  0  0  0  0  0  0  0  0  0  0
    2.1621    1.3650    3.6188 C   0  0  2  0  0  0  0  0  0  0  0  0
    1.4511    2.5960    3.8168 O   0  0  0  0  0  0  0  0  0  0  0  0
    1.6782    3.2729    5.0185 C   0  0  0  0  0  0  0  0  0  0  0  0
    1.5892    4.6160    5.1134 C   0  0  0  0  0  0  0  0  0  0  0  0
    1.7261    5.3288    6.3012 O   0  0  0  0  0  0  0  0  0  0  0  0
    2.0136    4.6506    7.4677 C   0  0  0  0  0  0  0  0  0  0  0  0
    2.1744    3.2836    7.4924 C   0  0  0  0  0  0  0  0  0  0  0  0
    1.9623    2.4778    6.2568 C   0  0  0  0  0  0  0  0  0  0  0  0
    2.5104    2.6958    8.7127 C   0  0  0  0  0  0  0  0  0  0  0  0
    2.6923    1.3159    8.8029 N   0  0  0  0  0  0  0  0  0  0  0  0
    2.9869    0.6295    9.9327 C   0  0  0  0  0  0  0  0  0  0  0  0
    3.1171   -0.5919    9.9115 O   0  0  0  0  0  0  0  0  0  0  0  0
    3.1377    1.3507   11.0650 N   0  0  0  0  0  0  0  0  0  0  0  0
    3.0512    2.7888   11.1434 C   0  0  0  0  0  0  0  0  0  0  0  0
    2.6526    3.4591    9.8636 C   0  0  0  0  0  0  0  0  0  0  0  0
    2.4221    4.8365    9.7717 C   0  0  0  0  0  0  0  0  0  0  0  0
    2.1296    5.4208    8.5718 N   0  0  0  0  0  0  0  0  0  0  0  0
    2.5029    5.7374   10.9801 C   0  0  0  0  0  0  0  0  0  0  0  0
    1.3192    6.4672   11.3405 O   0  0  0  0  0  0  0  0  0  0  0  0
    1.7637    5.3714   12.1585 O   0  0  0  0  0  0  0  0  0  0  0  0
    1.3747    5.4778    3.9391 C   0  0  0  0  0  0  0  0  0  0  0  0
    2.5299    5.8722    3.3386 N   0  0  0  0  0  0  0  0  0  0  0  0
    2.4247    6.6659    2.2568 C   0  0  0  0  0  0  0  0  0  0  0  0
    1.2191    7.0682    1.7128 C   0  0  0  0  0  0  0  0  0  0  0  0
    0.0311    6.6616    2.3266 C   0  0  0  0  0  0  0  0  0  0  0  0
    0.0892    5.8641    3.4932 C   0  0  0  0  0  0  0  0  0  0  0  0
   -1.1270    5.5362    4.1368 C   0  0  0  0  0  0  0  0  0  0  0  0
   -2.3518    5.9782    3.6212 C   0  0  0  0  0  0  0  0  0  0  0  0
   -2.4048    6.6932    2.4291 C   0  0  0  0  0  0  0  0  0  0  0  0
   -1.2136    7.0482    1.7974 C   0  0  0  0  0  0  0  0  0  0  0  0
   -3.5528    7.1077    1.8105 O   0  0  0  0  0  0  0  0  0  0  0  0
   -4.7822    6.5520    2.2929 C   0  0  2  0  0  0  0  0  0  0  0  0
   -4.8360    6.3727    3.7890 C   0  0  0  0  0  0  0  0  0  0  0  0
   -5.7818    6.6931    4.4944 O   0  0  0  0  0  0  0  0  0  0  0  0
   -3.5937    5.7410    4.3692 C   0  0  0  0  0  0  0  0  0  0  0  0
   -3.6288    5.1131    5.4144 O   0  0  0  0  0  0  0  0  0  0  0  0
   -5.1038    5.2715    1.5897 C   0  0  1  0  0  0  0  0  0  0  0  0
   -4.1718    4.1786    1.7705 O   0  0  0  0  0  0  0  0  0  0  0  0
   -6.4884    4.9137    1.6313 O   0  0  0  0  0  0  0  0  0  0  0  0
   -5.9694    5.1748    0.4146 C   0  0  0  0  0  0  0  0  0  0  0  0
   -5.8891    4.4637   -0.5578 O   0  0  0  0  0  0  0  0  0  0  0  0
    1.9257    0.7620    2.2332 C   0  0  0  0  0  0  0  0  0  0  0  0
    1.4525    1.3349    1.2629 O   0  0  0  0  0  0  0  0  0  0  0  0
    2.4164   -0.6747    2.1311 C   0  0  0  0  0  0  0  0  0  0  0  0
    2.2564   -1.3276    1.1123 O   0  0  0  0  0  0  0  0  0  0  0  0
    3.1063   -1.2984    3.3312 C   0  0  0  0  0  0  0  0  0  0  0  0
    3.9663   -2.1544    3.2282 O   0  0  0  0  0  0  0  0  0  0  0  0
  1  2  1  0  0  0  0
  2  3  2  0  0  0  0
  3  4  1  0  0  0  0
  3 50  1  0  0  0  0
  4  5  1  0  0  0  0
  5  6  1  1  0  0  0
  5 46  1  0  0  0  0
  6  7  1  0  0  0  0
  7  8  2  0  0  0  0
  7 12  1  0  0  0  0
  8  9  1  0  0  0  0
  8 25  1  0  0  0  0
  9 10  1  0  0  0  0
 10 11  2  0  0  0  0
 10 21  1  0  0  0  0
 11 12  1  0  0  0  0
 11 13  1  0  0  0  0
 13 14  1  0  0  0  0
 13 19  2  0  0  0  0
 14 15  1  0  0  0  0
 15 16  2  0  0  0  0
 15 17  1  0  0  0  0
 17 18  1  0  0  0  0
 18 19  1  0  0  0  0
 19 20  1  0  0  0  0
 20 21  2  0  0  0  0
 20 22  1  0  0  0  0
 22 23  1  0  0  0  0
 22 24  1  0  0  0  0
 23 24  1  0  0  0  0
 25 26  2  0  0  0  0
 25 30  1  0  0  0  0
 26 27  1  0  0  0  0
 27 28  2  0  0  0  0
 28 29  1  0  0  0  0
 29 30  2  0  0  0  0
 29 34  1  0  0  0  0
 30 31  1  0  0  0  0
 31 32  2  0  0  0  0
 32 33  1  0  0  0  0
 32 39  1  0  0  0  0
 33 34  2  0  0  0  0
 33 35  1  0  0  0  0
 36 35  1  1  0  0  0
 36 37  1  0  0  0  0
 36 41  1  0  0  0  0
 37 38  2  0  0  0  0
 37 39  1  0  0  0  0
 39 40  2  0  0  0  0
 41 42  1  1  0  0  0
 41 43  1  0  0  0  0
 41 44  1  0  0  0  0
 43 44  1  0  0  0  0
 44 45  2  0  0  0  0
 46 47  2  0  0  0  0
 46 48  1  0  0  0  0
 48 49  2  0  0  0  0
 48 50  1  0  0  0  0
 50 51  2  0  0  0  0
M  END
$$$$