
 OpenBabel11212021053D

 54 62  0  0  1  0  0  0  0  0999 V2000
    4.9782    1.6342   -1.7942 O   0  0  0  0  0  0  0  0  0  0  0  0
    3.8526    0.8914   -2.0372 C   0  0  0  0  0  0  0  0  0  0  0  0
    2.6742    1.1305   -1.4467 C   0  0  0  0  0  0  0  0  0  0  0  0
    2.5033    2.1690   -0.5365 O   0  0  0  0  0  0  0  0  0  0  0  0
    1.1641    2.6653   -0.4779 C   0  0  2  0  0  0  0  0  0  0  0  0
    1.0474    3.8273    0.3938 O   0  0  0  0  0  0  0  0  0  0  0  0
    1.2931    5.0689   -0.1803 C   0  0  0  0  0  0  0  0  0  0  0  0
    0.7635    6.2125    0.3181 C   0  0  0  0  0  0  0  0  0  0  0  0
    0.9792    7.4713   -0.2539 O   0  0  0  0  0  0  0  0  0  0  0  0
    1.5890    7.4770   -1.5705 C   0  0  3  0  0  0  0  0  0  0  0  0
    2.7549    6.5138   -1.6373 C   0  0  3  0  0  0  0  0  0  0  0  0
    2.2548    5.1095   -1.3377 C   0  0  0  0  0  0  0  0  0  0  0  0
    3.3765    6.5438   -3.0049 C   0  0  0  0  0  0  0  0  0  0  0  0
    4.1392    5.5707   -3.3661 N   0  0  0  0  0  0  0  0  0  0  0  0
    4.6739    5.6526   -4.6158 C   0  0  0  0  0  0  0  0  0  0  0  0
    4.8787    4.5598   -5.2405 N   0  0  0  0  0  0  0  0  0  0  0  0
    4.9684    6.8208   -5.2439 N   0  0  0  0  0  0  0  0  0  0  0  0
    4.2280    7.8026   -4.8792 C   0  0  0  0  0  0  0  0  0  0  0  0
    3.0694    7.6889   -3.9251 C   0  0  3  0  0  0  0  0  0  0  0  0
    2.7416    8.9639   -3.1376 C   0  0  3  0  0  0  0  0  0  0  0  0
    2.0208    8.7777   -1.9083 O   0  3  0  0  0  0  0  0  0  0  0  0
    2.0085    9.9735   -3.9949 C   0  0  0  0  0  0  0  0  0  0  0  0
    0.7352    9.5247   -4.4638 O   0  0  0  0  0  0  0  0  0  0  0  0
    0.8150   10.5144   -3.4165 O   0  0  0  0  0  0  0  0  0  0  0  0
    4.4560    9.0086   -5.3958 O   0  0  0  0  0  0  0  0  0  0  0  0
   -0.0426    6.2608    1.5757 C   0  0  0  0  0  0  0  0  0  0  0  0
    0.6387    6.4242    2.7801 C   0  0  0  0  0  0  0  0  0  0  0  0
   -0.0250    6.5268    3.9371 N   0  3  0  0  0  0  0  0  0  0  0  0
    0.6647    6.7200    5.0785 F   0  0  0  0  0  0  0  0  0  0  0  0
   -1.3381    6.4813    4.0084 N   0  0  0  0  0  0  0  0  0  0  0  0
   -2.0736    6.3170    2.9037 C   0  0  0  0  0  0  0  0  0  0  0  0
   -1.4552    6.1962    1.6373 C   0  0  0  0  0  0  0  0  0  0  0  0
   -2.2814    6.0263    0.5067 C   0  0  0  0  0  0  0  0  0  0  0  0
   -3.6815    6.0056    0.6196 C   0  0  0  0  0  0  0  0  0  0  0  0
   -4.5042    5.8349   -0.5816 C   0  0  0  0  0  0  0  0  0  0  0  0
   -3.9723    5.6912   -1.6729 O   0  0  0  0  0  0  0  0  0  0  0  0
   -6.0052    5.9505   -0.4249 C   0  0  0  0  0  0  0  0  0  0  0  0
   -6.7495    5.7275   -1.3681 O   0  0  0  0  0  0  0  0  0  0  0  0
   -6.4489    6.5683    0.8786 C   0  0  1  0  0  0  0  0  0  0  0  0
   -5.6519    6.1610    2.0045 O   0  0  0  0  0  0  0  0  0  0  0  0
   -4.2951    6.1600    1.8493 C   0  0  0  0  0  0  0  0  0  0  0  0
   -3.4812    6.2862    2.9848 C   0  0  0  0  0  0  0  0  0  0  0  0
   -4.3122    6.4578    4.7025 Br  0  0  0  0  0  0  0  0  0  0  0  0
   -6.5269    8.0684    0.7993 C   0  0  1  0  0  0  0  0  0  0  0  0
   -6.8847    8.7500    2.0284 O   0  0  0  0  0  0  0  0  0  0  0  0
   -5.4795    8.6733    0.0449 O   0  0  0  0  0  0  0  0  0  0  0  0
   -6.7247    8.8293   -0.4235 C   0  0  0  0  0  0  0  0  0  0  0  0
   -7.3163    9.8819   -0.6049 O   0  0  0  0  0  0  0  0  0  0  0  0
    0.2382    1.5686    0.0137 C   0  0  0  0  0  0  0  0  0  0  0  0
   -0.6120    1.7053    0.8810 O   0  0  0  0  0  0  0  0  0  0  0  0
    0.4142    0.2845   -0.7704 C   0  0  0  0  0  0  0  0  0  0  0  0
   -0.3499   -0.6504   -0.6124 O   0  0  0  0  0  0  0  0  0  0  0  0
    1.5494    0.2088   -1.7743 C   0  0  0  0  0  0  0  0  0  0  0  0
    1.4879   -0.4797   -2.7759 O   0  0  0  0  0  0  0  0  0  0  0  0
  1  2  1  0  0  0  0
  2  3  2  0  0  0  0
  3  4  1  0  0  0  0
  3 53  1  0  0  0  0
  4  5  1  0  0  0  0
  5  6  1  1  0  0  0
  5 49  1  0  0  0  0
  6  7  1  0  0  0  0
  7  8  2  0  0  0  0
  7 12  1  0  0  0  0
  8  9  1  0  0  0  0
  8 26  1  0  0  0  0
  9 10  1  0  0  0  0
 10 11  1  0  0  0  0
 10 21  1  0  0  0  0
 11 12  1  0  0  0  0
 11 13  1  0  0  0  0
 13 14  2  0  0  0  0
 13 19  1  0  0  0  0
 14 15  1  0  0  0  0
 15 16  2  0  0  0  0
 15 17  1  0  0  0  0
 17 18  2  0  0  0  0
 18 19  1  0  0  0  0
 18 25  1  0  0  0  0
 19 20  1  0  0  0  0
 20 21  1  0  0  0  0
 20 22  1  0  0  0  0
 22 23  1  0  0  0  0
 22 24  1  0  0  0  0
 23 24  1  0  0  0  0
 26 27  2  0  0  0  0
 26 32  1  0  0  0  0
 27 28  1  0  0  0  0
 28 29  1  0  0  0  0
 28 30  2  0  0  0  0
 30 31  1  0  0  0  0
 31 32  2  0  0  0  0
 31 42  1  0  0  0  0
 32 33  1  0  0  0  0
 33 34  2  0  0  0  0
 34 35  1  0  0  0  0
 34 41  1  0  0  0  0
 35 36  2  0  0  0  0
 35 37  1  0  0  0  0
 37 38  2  0  0  0  0
 39 37  1  6  0  0  0
 39 40  1  0  0  0  0
 39 44  1  0  0  0  0
 40 41  1  0  0  0  0
 41 42  2  0  0  0  0
 42 43  1  0  0  0  0
 44 45  1  1  0  0  0
 44 46  1  0  0  0  0
 44 47  1  0  0  0  0
 46 47  1  0  0  0  0
 47 48  2  0  0  0  0
 49 50  2  0  0  0  0
 49 51  1  0  0  0  0
 51 52  2  0  0  0  0
 51 53  1  0  0  0  0
 53 54  2  0  0  0  0
M  CHG  2  21   1  28   1
M  END
$$$$