
 OpenBabel10252014483D

 96112  0  0  1  0  0  0  0  0999 V2000
    2.5213    1.4514    2.5940 F   0  0  0  0  0  0  0  0  0  0  0  0
    3.5511    1.1166    1.7684 C   0  0  3  0  0  0  0  0  0  0  0  0
    4.3775   -0.0096    2.4303 C   0  0  0  0  0  0  0  0  0  0  0  0
    5.9003    0.2637    2.3820 C   0  0  3  0  0  0  0  0  0  0  0  0
    6.7111   -0.9197    2.9137 C   0  0  0  0  0  0  0  0  0  0  0  0
    7.1194   -0.7450    4.3668 C   0  0  0  0  0  0  0  0  0  0  0  0
    7.8452    0.5833    4.5988 C   0  0  3  0  0  0  0  0  0  0  0  0
    7.0079    1.7831    4.1809 C   0  0  0  0  0  0  0  0  0  0  0  0
    6.1318    1.6074    3.0750 C   0  0  0  0  0  0  0  0  0  0  0  0
    5.3003    2.6610    2.6278 C   0  0  0  0  0  0  0  0  0  0  0  0
    4.3842    2.3746    1.4559 C   0  0  3  0  0  0  0  0  0  0  0  0
    3.5798    3.5760    0.8733 C   0  0  3  0  0  0  0  0  0  0  0  0
    4.0586    4.9415    1.4042 C   0  0  0  0  0  0  0  0  0  0  0  0
    4.3069    4.9358    2.9086 C   0  0  0  0  0  0  0  0  0  0  0  0
    5.3055    3.8815    3.2833 C   0  0  0  0  0  0  0  0  0  0  0  0
    6.1618    4.0556    4.3779 C   0  0  0  0  0  0  0  0  0  0  0  0
    7.0208    3.0385    4.8706 C   0  0  0  0  0  0  0  0  0  0  0  0
    7.7790    3.3211    6.1363 C   0  0  0  0  0  0  0  0  0  0  0  0
    9.1007    2.8968    6.3426 C   0  0  0  0  0  0  0  0  0  0  0  0
    9.7639    2.9819    7.5923 C   0  0  0  0  0  0  0  0  0  0  0  0
   11.1031    2.2578    7.7600 C   0  0  3  0  0  0  0  0  0  0  0  0
   10.8659    0.7594    7.4719 C   0  0  0  0  0  0  0  0  0  0  0  0
   12.0681   -0.1212    7.7432 C   0  0  0  0  0  0  0  0  0  0  0  0
   12.5352    0.0385    9.1871 C   0  0  3  0  0  0  0  0  0  0  0  0
   12.9641    1.5064    9.4098 C   0  0  3  0  0  0  0  0  0  0  0  0
   11.8012    2.5098    9.1288 C   0  0  3  0  0  0  0  0  0  0  0  0
   10.7576    2.5812   10.2580 C   0  0  0  0  0  0  0  0  0  0  0  0
    9.7475    3.7179   10.0304 C   0  0  3  0  0  0  0  0  0  0  0  0
    9.1213    3.6230    8.6582 C   0  0  0  0  0  0  0  0  0  0  0  0
    7.8508    4.1699    8.4435 C   0  0  0  0  0  0  0  0  0  0  0  0
    7.1980    4.0066    7.2188 C   0  0  0  0  0  0  0  0  0  0  0  0
    5.9637    4.5276    7.1187 F   0  0  0  0  0  0  0  0  0  0  0  0
   10.3676    5.1022   10.2574 C   0  0  0  0  0  0  0  0  0  0  0  0
   13.5961    1.7182   10.7907 C   0  0  0  0  0  0  0  0  0  0  0  0
   13.6412   -0.9801    9.4684 C   0  0  0  0  0  0  0  0  0  0  0  0
    3.5397    3.5767   -0.6988 C   0  0  3  0  0  0  0  0  0  0  0  0
    2.7154    4.7325   -1.1613 O   0  0  0  0  0  0  0  0  0  0  0  0
    3.0385    5.3475   -2.3597 C   0  0  0  0  0  0  0  0  0  0  0  0
    3.9508    4.8064   -3.2365 C   0  0  0  0  0  0  0  0  0  0  0  0
    4.6047    3.4850   -2.9139 C   0  0  3  0  0  0  0  0  0  0  0  0
    4.9239    3.6260   -1.4230 C   0  0  3  0  0  0  0  0  0  0  0  0
    5.9542    2.6874   -1.1185 O   0  0  0  0  0  0  0  0  0  0  0  0
    7.2270    3.2376   -1.1417 C   0  0  0  0  0  0  0  0  0  0  0  0
    7.6300    4.2830   -2.0049 C   0  0  0  0  0  0  0  0  0  0  0  0
    8.8799    4.8902   -1.8842 C   0  0  0  0  0  0  0  0  0  0  0  0
    9.7316    4.4236   -0.9078 C   0  0  0  0  0  0  0  0  0  0  0  0
    9.3752    3.3427   -0.0978 C   0  0  0  0  0  0  0  0  0  0  0  0
    8.1322    2.7328   -0.2101 C   0  0  0  0  0  0  0  0  0  0  0  0
   10.4313    3.0785    0.9311 C   0  0  0  0  0  0  0  0  0  0  0  0
   11.6124    3.9088    0.4021 C   0  0  0  0  0  0  0  0  0  0  0  0
   11.0314    5.0209   -0.4759 C   0  0  0  0  0  0  0  0  0  0  0  0
    3.7079    2.4518   -3.2724 O   0  0  0  0  0  0  0  0  0  0  0  0
    4.4356    5.5291   -4.3273 C   0  0  0  0  0  0  0  0  0  0  0  0
    4.0189    6.8553   -4.6114 C   0  0  0  0  0  0  0  0  0  0  0  0
    2.9776    7.3706   -3.8303 C   0  0  0  0  0  0  0  0  0  0  0  0
    2.5059    6.6169   -2.6895 C   0  0  0  0  0  0  0  0  0  0  0  0
    1.6125    7.1666   -1.8609 F   0  0  0  0  0  0  0  0  0  0  0  0
    2.5151    8.6396   -4.2742 C   0  0  0  0  0  0  0  0  0  0  0  0
    1.2123    9.4680   -3.4873 Cl  0  0  0  0  0  0  0  0  0  0  0  0
    3.0850    9.3236   -5.3676 C   0  0  0  0  0  0  0  0  0  0  0  0
    4.2022    8.8722   -6.1169 C   0  0  0  0  0  0  0  0  0  0  0  0
    4.6791    7.6166   -5.6402 C   0  0  0  0  0  0  0  0  0  0  0  0
    6.2355    7.0323   -6.2154 Cl  0  0  0  0  0  0  0  0  0  0  0  0
    4.8020    9.7268   -7.2412 C   0  0  0  0  0  0  0  0  0  0  0  0
    4.6566   11.1486   -7.1981 C   0  0  0  0  0  0  0  0  0  0  0  0
    4.9891   12.0862   -8.2809 C   0  0  0  0  0  0  0  0  0  0  0  0
    4.7273   13.5864   -8.5147 C   0  0  0  0  0  0  0  0  0  0  0  0
    5.1520   14.1992   -9.7073 C   0  0  0  0  0  0  0  0  0  0  0  0
    4.6856   15.4795  -10.1102 N   0  0  0  0  0  0  0  0  0  0  0  0
    5.8905   13.4161  -10.5731 C   0  0  0  0  0  0  0  0  0  0  0  0
    6.1622   12.1291  -10.3601 N   0  0  0  0  0  0  0  0  0  0  0  0
    5.7112   11.4465   -9.3078 N   0  3  0  0  0  0  0  0  0  0  0  0
    5.9717   10.1062   -9.3115 N   0  3  0  0  0  0  0  0  0  0  0  0
    5.4586    9.2367   -8.4016 C   0  0  0  0  0  0  0  0  0  0  0  0
    5.5535    7.9261   -8.7445 O   0  0  0  0  0  0  0  0  0  0  0  0
    6.9153    9.4466  -10.6063 Cl  0  0  0  0  0  0  0  0  0  0  0  0
    3.9127   14.5778   -7.5753 N   0  3  0  0  0  0  0  0  0  0  0  0
    4.2303   15.9567   -7.4629 N   0  3  0  0  0  0  0  0  0  0  0  0
    5.8569   16.5244   -7.6661 Cl  0  0  0  0  0  0  0  0  0  0  0  0
    3.3428   16.8856   -6.9356 C   0  0  0  0  0  0  0  0  0  0  0  0
    2.1506   16.5338   -6.2445 C   0  0  0  0  0  0  0  0  0  0  0  0
    1.9266   15.1639   -6.1573 C   0  0  0  0  0  0  0  0  0  0  0  0
    2.7491   14.1971   -6.9236 C   0  0  0  0  0  0  0  0  0  0  0  0
    2.2769   12.8810   -7.0780 N   0  0  0  0  0  0  0  0  0  0  0  0
    0.9298   14.7758   -5.3555 N   0  0  0  0  0  0  0  0  0  0  0  0
    0.1559   15.5874   -4.5903 N   0  3  0  0  0  0  0  0  0  0  0  0
    0.2077   16.9588   -4.7169 C   0  0  0  0  0  0  0  0  0  0  0  0
    1.2005   17.4138   -5.6229 N   0  3  0  0  0  0  0  0  0  0  0  0
    1.1953   18.7456   -5.9659 N   0  0  0  0  0  0  0  0  0  0  0  0
    0.2741   19.6106   -5.4622 N   0  3  0  0  0  0  0  0  0  0  0  0
    0.1765   21.0195   -5.9918 C   0  0  0  0  0  0  0  0  0  0  0  0
   -0.5646   19.2084   -4.4962 C   0  0  0  0  0  0  0  0  0  0  0  0
   -0.5856   17.9127   -4.1105 N   0  3  0  0  0  0  0  0  0  0  0  0
   -1.6507   17.5942   -2.8025 Cl  0  0  0  0  0  0  0  0  0  0  0  0
   -0.9151   14.7289   -3.5666 Cl  0  0  0  0  0  0  0  0  0  0  0  0
    9.3873    0.5871    3.6594 Cl  0  0  0  0  0  0  0  0  0  0  0  0
  1  2  1  0  0  0  0
  2  3  1  0  0  0  0
  2 11  1  0  0  0  0
  3  4  1  0  0  0  0
  4  5  1  0  0  0  0
  4  9  1  0  0  0  0
  5  6  1  0  0  0  0
  6  7  1  0  0  0  0
  7  8  1  0  0  0  0
  7 96  1  0  0  0  0
  8  9  2  0  0  0  0
  8 17  1  0  0  0  0
  9 10  1  0  0  0  0
 10 11  1  0  0  0  0
 10 15  2  0  0  0  0
 11 12  1  0  0  0  0
 12 13  1  0  0  0  0
 12 36  1  0  0  0  0
 13 14  1  0  0  0  0
 14 15  1  0  0  0  0
 15 16  1  0  0  0  0
 16 17  2  0  0  0  0
 17 18  1  0  0  0  0
 18 19  2  0  0  0  0
 18 31  1  0  0  0  0
 19 20  1  0  0  0  0
 20 21  1  0  0  0  0
 20 29  2  0  0  0  0
 21 22  1  0  0  0  0
 21 26  1  0  0  0  0
 22 23  1  0  0  0  0
 23 24  1  0  0  0  0
 24 25  1  0  0  0  0
 24 35  1  0  0  0  0
 25 26  1  0  0  0  0
 25 34  1  0  0  0  0
 26 27  1  0  0  0  0
 27 28  1  0  0  0  0
 28 29  1  0  0  0  0
 28 33  1  0  0  0  0
 29 30  1  0  0  0  0
 30 31  2  0  0  0  0
 31 32  1  0  0  0  0
 36 37  1  0  0  0  0
 36 41  1  0  0  0  0
 37 38  1  0  0  0  0
 38 39  2  0  0  0  0
 38 56  1  0  0  0  0
 39 40  1  0  0  0  0
 39 53  1  0  0  0  0
 40 41  1  0  0  0  0
 40 52  1  0  0  0  0
 41 42  1  0  0  0  0
 42 43  1  0  0  0  0
 43 44  2  0  0  0  0
 43 48  1  0  0  0  0
 44 45  1  0  0  0  0
 45 46  2  0  0  0  0
 46 47  1  0  0  0  0
 46 51  1  0  0  0  0
 47 48  2  0  0  0  0
 47 49  1  0  0  0  0
 49 50  1  0  0  0  0
 50 51  1  0  0  0  0
 53 54  2  0  0  0  0
 54 55  1  0  0  0  0
 54 62  1  0  0  0  0
 55 56  2  0  0  0  0
 55 58  1  0  0  0  0
 56 57  1  0  0  0  0
 58 59  1  0  0  0  0
 58 60  2  0  0  0  0
 60 61  1  0  0  0  0
 61 62  2  0  0  0  0
 61 64  1  0  0  0  0
 62 63  1  0  0  0  0
 64 65  2  0  0  0  0
 64 74  1  0  0  0  0
 65 66  1  0  0  0  0
 66 67  2  0  0  0  0
 66 72  1  0  0  0  0
 67 68  1  0  0  0  0
 67 77  1  0  0  0  0
 68 69  1  0  0  0  0
 68 70  2  0  0  0  0
 70 71  1  0  0  0  0
 71 72  2  0  0  0  0
 72 73  1  0  0  0  0
 73 74  2  0  0  0  0
 73 76  1  0  0  0  0
 74 75  1  0  0  0  0
 77 78  2  0  0  0  0
 77 83  1  0  0  0  0
 78 79  1  0  0  0  0
 78 80  1  0  0  0  0
 80 81  2  0  0  0  0
 81 82  1  0  0  0  0
 81 88  1  0  0  0  0
 82 83  2  0  0  0  0
 82 85  1  0  0  0  0
 83 84  1  0  0  0  0
 85 86  2  0  0  0  0
 86 87  1  0  0  0  0
 86 95  1  0  0  0  0
 87 88  2  0  0  0  0
 87 93  1  0  0  0  0
 88 89  1  0  0  0  0
 89 90  2  0  0  0  0
 90 91  1  0  0  0  0
 90 92  1  0  0  0  0
 92 93  2  0  0  0  0
 93 94  1  0  0  0  0
M  CHG  8  72   1  73   1  77   1  78   1  86   1  88   1  90   1  93   1
M  END
$$$$