
 OpenBabel09222010263D

 51 59  0  0  1  0  0  0  0  0999 V2000
    7.4888    4.1892   -1.2730 O   0  0  0  0  0  0  0  0  0  0  0  0
    7.3343    3.0582   -2.0308 C   0  0  0  0  0  0  0  0  0  0  0  0
    6.1359    2.5499   -2.3437 C   0  0  0  0  0  0  0  0  0  0  0  0
    4.9559    3.1125   -1.8908 O   0  0  0  0  0  0  0  0  0  0  0  0
    3.8609    2.9748   -2.8160 C   0  0  2  0  0  0  0  0  0  0  0  0
    2.7264    3.7829   -2.4687 O   0  0  0  0  0  0  0  0  0  0  0  0
    2.9122    5.1629   -2.5012 C   0  0  0  0  0  0  0  0  0  0  0  0
    1.9031    6.0339   -2.7351 C   0  0  0  0  0  0  0  0  0  0  0  0
    2.1192    7.4040   -2.7323 N   0  0  0  0  0  0  0  0  0  0  0  0
    3.3474    8.0055   -2.4377 C   0  0  0  0  0  0  0  0  0  0  0  0
    4.4443    7.1998   -2.1812 C   0  0  0  0  0  0  0  0  0  0  0  0
    4.2888    5.7096   -2.1902 C   0  0  0  0  0  0  0  0  0  0  0  0
    5.6692    7.8066   -1.9034 C   0  0  0  0  0  0  0  0  0  0  0  0
    6.8103    7.0276   -1.6535 N   0  0  0  0  0  0  0  0  0  0  0  0
    8.0033    7.5161   -1.2282 C   0  0  0  0  0  0  0  0  0  0  0  0
    8.9458    6.7736   -0.9663 O   0  0  0  0  0  0  0  0  0  0  0  0
    8.0886    8.8570   -1.0718 N   0  0  0  0  0  0  0  0  0  0  0  0
    7.1287    9.7909   -1.6059 C   0  0  0  0  0  0  0  0  0  0  0  0
    5.7790    9.1951   -1.8724 C   0  0  0  0  0  0  0  0  0  0  0  0
    4.6372    9.9610   -2.1625 C   0  0  0  0  0  0  0  0  0  0  0  0
    3.4386    9.3504   -2.4389 N   0  0  0  0  0  0  0  0  0  0  0  0
    4.6156   11.4795   -2.2135 C   0  0  0  0  0  0  0  0  0  0  0  0
    4.9912   12.1908   -1.0244 O   0  0  0  0  0  0  0  0  0  0  0  0
    5.8349   12.2348   -2.1954 O   0  0  0  0  0  0  0  0  0  0  0  0
    0.5098    5.5881   -3.0132 C   0  0  0  0  0  0  0  0  0  0  0  0
   -0.2851    5.5166   -1.9140 N   0  0  0  0  0  0  0  0  0  0  0  0
   -1.5872    5.2219   -2.1032 C   0  0  0  0  0  0  0  0  0  0  0  0
   -2.1658    5.0490   -3.3475 C   0  0  0  0  0  0  0  0  0  0  0  0
   -1.3606    5.1498   -4.4842 C   0  0  0  0  0  0  0  0  0  0  0  0
    0.0248    5.3955   -4.3324 C   0  0  0  0  0  0  0  0  0  0  0  0
    0.8152    5.4412   -5.5036 C   0  0  0  0  0  0  0  0  0  0  0  0
    0.2386    5.2859   -6.7724 C   0  0  0  0  0  0  0  0  0  0  0  0
   -1.1283    5.1125   -6.9146 C   0  0  0  0  0  0  0  0  0  0  0  0
   -1.9203    5.0196   -5.7704 C   0  0  0  0  0  0  0  0  0  0  0  0
   -1.7735    4.9691   -8.1056 O   0  0  0  0  0  0  0  0  0  0  0  0
   -1.0947    5.4246   -9.2762 C   0  0  2  0  0  0  0  0  0  0  0  0
    0.4128    5.3223   -9.3062 C   0  0  0  0  0  0  0  0  0  0  0  0
    1.0692    5.4265  -10.3349 O   0  0  0  0  0  0  0  0  0  0  0  0
    1.0914    5.2585   -7.9612 C   0  0  0  0  0  0  0  0  0  0  0  0
    2.3084    5.1975   -7.8779 O   0  0  0  0  0  0  0  0  0  0  0  0
   -1.5662    6.8015   -9.6508 C   0  0  1  0  0  0  0  0  0  0  0  0
   -2.9804    6.9340   -9.9390 O   0  0  0  0  0  0  0  0  0  0  0  0
   -0.9798    7.8643   -8.8964 O   0  0  0  0  0  0  0  0  0  0  0  0
   -0.7135    7.8497  -10.2220 C   0  0  0  0  0  0  0  0  0  0  0  0
   -0.9564    8.6811  -11.0636 O   0  0  0  0  0  0  0  0  0  0  0  0
    3.5081    1.4927   -2.8465 C   0  0  0  0  0  0  0  0  0  0  0  0
    2.3942    1.0014   -2.7517 O   0  0  0  0  0  0  0  0  0  0  0  0
    4.7325    0.6268   -3.0699 C   0  0  0  0  0  0  0  0  0  0  0  0
    4.6473   -0.5858   -3.1690 O   0  0  0  0  0  0  0  0  0  0  0  0
    6.0855    1.3047   -3.1481 C   0  0  0  0  0  0  0  0  0  0  0  0
    6.9931    0.8881   -3.8440 O   0  0  0  0  0  0  0  0  0  0  0  0
  1  2  1  0  0  0  0
  2  3  2  0  0  0  0
  3  4  1  0  0  0  0
  3 50  1  0  0  0  0
  4  5  1  0  0  0  0
  5  6  1  1  0  0  0
  5 46  1  0  0  0  0
  6  7  1  0  0  0  0
  7  8  2  0  0  0  0
  7 12  1  0  0  0  0
  8  9  1  0  0  0  0
  8 25  1  0  0  0  0
  9 10  1  0  0  0  0
 10 11  2  0  0  0  0
 10 21  1  0  0  0  0
 11 12  1  0  0  0  0
 11 13  1  0  0  0  0
 13 14  1  0  0  0  0
 13 19  2  0  0  0  0
 14 15  1  0  0  0  0
 15 16  2  0  0  0  0
 15 17  1  0  0  0  0
 17 18  1  0  0  0  0
 18 19  1  0  0  0  0
 19 20  1  0  0  0  0
 20 21  2  0  0  0  0
 20 22  1  0  0  0  0
 22 23  1  0  0  0  0
 22 24  1  0  0  0  0
 23 24  1  0  0  0  0
 25 26  2  0  0  0  0
 25 30  1  0  0  0  0
 26 27  1  0  0  0  0
 27 28  2  0  0  0  0
 28 29  1  0  0  0  0
 29 30  2  0  0  0  0
 29 34  1  0  0  0  0
 30 31  1  0  0  0  0
 31 32  2  0  0  0  0
 32 33  1  0  0  0  0
 32 39  1  0  0  0  0
 33 34  2  0  0  0  0
 33 35  1  0  0  0  0
 36 35  1  1  0  0  0
 36 37  1  0  0  0  0
 36 41  1  0  0  0  0
 37 38  2  0  0  0  0
 37 39  1  0  0  0  0
 39 40  2  0  0  0  0
 41 42  1  6  0  0  0
 41 43  1  0  0  0  0
 41 44  1  0  0  0  0
 43 44  1  0  0  0  0
 44 45  2  0  0  0  0
 46 47  2  0  0  0  0
 46 48  1  0  0  0  0
 48 49  2  0  0  0  0
 48 50  1  0  0  0  0
 50 51  2  0  0  0  0
M  END
$$$$