
 OpenBabel11242001353D

 54 62  0  0  1  0  0  0  0  0999 V2000
    7.4083    1.5880   -6.5681 O   0  0  0  0  0  0  0  0  0  0  0  0
    7.4820    0.4188   -5.8548 C   0  0  0  0  0  0  0  0  0  0  0  0
    6.5492    0.0574   -4.9661 C   0  0  0  0  0  0  0  0  0  0  0  0
    5.4812    0.8907   -4.6807 O   0  0  0  0  0  0  0  0  0  0  0  0
    4.2423    0.1960   -4.5866 C   0  0  2  0  0  0  0  0  0  0  0  0
    3.1400    1.1104   -4.4237 O   0  0  0  0  0  0  0  0  0  0  0  0
    2.9763    2.0653   -5.4189 C   0  0  0  0  0  0  0  0  0  0  0  0
    2.4471    3.2711   -5.1330 C   0  0  0  0  0  0  0  0  0  0  0  0
    2.2394    4.2726   -6.0673 O   0  0  0  0  0  0  0  0  0  0  0  0
    2.6385    4.0588   -7.3704 C   0  0  0  0  0  0  0  0  0  0  0  0
    3.1448    2.8500   -7.7889 C   0  0  0  0  0  0  0  0  0  0  0  0
    3.3369    1.7165   -6.8394 C   0  0  0  0  0  0  0  0  0  0  0  0
    3.4819    2.7474   -9.1321 C   0  0  0  0  0  0  0  0  0  0  0  0
    3.9603    1.5123   -9.5893 O   0  0  0  0  0  0  0  0  0  0  0  0
    3.9140    1.2265  -10.9392 C   0  0  0  0  0  0  0  0  0  0  0  0
    4.0604    0.0168  -11.3410 N   0  0  0  0  0  0  0  0  0  0  0  0
    3.6813    2.2302  -11.8040 O   0  0  0  0  0  0  0  0  0  0  0  0
    3.8390    3.5967  -11.4067 C   0  0  3  0  0  0  0  0  0  0  0  0
    3.3689    3.8163  -10.0060 C   0  0  0  0  0  0  0  0  0  0  0  0
    2.8693    5.0237   -9.5011 C   0  0  0  0  0  0  0  0  0  0  0  0
    2.4809    5.1146   -8.1917 N   0  0  0  0  0  0  0  0  0  0  0  0
    2.7169    6.2702  -10.3472 C   0  0  0  0  0  0  0  0  0  0  0  0
    2.8711    7.5380   -9.6835 O   0  0  0  0  0  0  0  0  0  0  0  0
    3.8861    7.0657  -10.5907 O   0  0  0  0  0  0  0  0  0  0  0  0
    5.2130    4.0152  -11.6002 N   0  0  0  0  0  0  0  0  0  0  0  0
    2.0032    3.6385   -3.7782 C   0  0  0  0  0  0  0  0  0  0  0  0
    0.6875    3.3647   -3.4265 C   0  0  0  0  0  0  0  0  0  0  0  0
    0.2290    3.6856   -2.2134 N   0  3  0  0  0  0  0  0  0  0  0  0
   -1.0537    3.4147   -1.9056 F   0  0  0  0  0  0  0  0  0  0  0  0
    0.9807    4.2731   -1.3002 N   0  0  0  0  0  0  0  0  0  0  0  0
    2.2577    4.5621   -1.5795 C   0  0  0  0  0  0  0  0  0  0  0  0
    2.8323    4.2590   -2.8264 C   0  0  0  0  0  0  0  0  0  0  0  0
    4.1871    4.5953   -3.0562 C   0  0  0  0  0  0  0  0  0  0  0  0
    4.9491    5.2249   -2.0638 C   0  0  0  0  0  0  0  0  0  0  0  0
    6.3496    5.5707   -2.3191 C   0  0  0  0  0  0  0  0  0  0  0  0
    6.9206    5.2300   -3.3402 O   0  0  0  0  0  0  0  0  0  0  0  0
    7.0370    6.3774   -1.2481 C   0  0  0  0  0  0  0  0  0  0  0  0
    7.9224    7.1677   -1.5353 O   0  0  0  0  0  0  0  0  0  0  0  0
    6.5052    6.1256    0.1426 C   0  0  1  0  0  0  0  0  0  0  0  0
    5.0676    6.0932    0.2102 O   0  0  0  0  0  0  0  0  0  0  0  0
    4.3909    5.5208   -0.8315 C   0  0  0  0  0  0  0  0  0  0  0  0
    3.0502    5.1886   -0.6155 C   0  0  0  0  0  0  0  0  0  0  0  0
    2.4995    5.4734    0.5767 F   0  0  0  0  0  0  0  0  0  0  0  0
    7.1532    4.9196    0.7766 C   0  0  1  0  0  0  0  0  0  0  0  0
    8.5822    4.9767    0.9365 O   0  0  0  0  0  0  0  0  0  0  0  0
    6.4517    4.3324    1.8816 O   0  0  0  0  0  0  0  0  0  0  0  0
    6.5610    3.5934    0.7689 C   0  0  0  0  0  0  0  0  0  0  0  0
    5.7174    3.0841    0.0513 O   0  0  0  0  0  0  0  0  0  0  0  0
    4.2865   -0.7345   -3.3901 C   0  0  0  0  0  0  0  0  0  0  0  0
    3.4343   -0.8090   -2.5165 O   0  0  0  0  0  0  0  0  0  0  0  0
    5.5085   -1.6244   -3.3976 C   0  0  0  0  0  0  0  0  0  0  0  0
    5.5149   -2.6516   -2.7391 O   0  0  0  0  0  0  0  0  0  0  0  0
    6.6897   -1.2590   -4.2799 C   0  0  0  0  0  0  0  0  0  0  0  0
    7.6340   -2.0129   -4.4393 O   0  0  0  0  0  0  0  0  0  0  0  0
  1  2  1  0  0  0  0
  2  3  2  0  0  0  0
  3  4  1  0  0  0  0
  3 53  1  0  0  0  0
  4  5  1  0  0  0  0
  5  6  1  1  0  0  0
  5 49  1  0  0  0  0
  6  7  1  0  0  0  0
  7  8  2  0  0  0  0
  7 12  1  0  0  0  0
  8  9  1  0  0  0  0
  8 26  1  0  0  0  0
  9 10  1  0  0  0  0
 10 11  2  0  0  0  0
 10 21  1  0  0  0  0
 11 12  1  0  0  0  0
 11 13  1  0  0  0  0
 13 14  1  0  0  0  0
 13 19  2  0  0  0  0
 14 15  1  0  0  0  0
 15 16  2  0  0  0  0
 15 17  1  0  0  0  0
 17 18  1  0  0  0  0
 18 19  1  0  0  0  0
 18 25  1  0  0  0  0
 19 20  1  0  0  0  0
 20 21  2  0  0  0  0
 20 22  1  0  0  0  0
 22 23  1  0  0  0  0
 22 24  1  0  0  0  0
 23 24  1  0  0  0  0
 26 27  2  0  0  0  0
 26 32  1  0  0  0  0
 27 28  1  0  0  0  0
 28 29  1  0  0  0  0
 28 30  2  0  0  0  0
 30 31  1  0  0  0  0
 31 32  2  0  0  0  0
 31 42  1  0  0  0  0
 32 33  1  0  0  0  0
 33 34  2  0  0  0  0
 34 35  1  0  0  0  0
 34 41  1  0  0  0  0
 35 36  2  0  0  0  0
 35 37  1  0  0  0  0
 37 38  2  0  0  0  0
 39 37  1  6  0  0  0
 39 40  1  0  0  0  0
 39 44  1  0  0  0  0
 40 41  1  0  0  0  0
 41 42  2  0  0  0  0
 42 43  1  0  0  0  0
 44 45  1  1  0  0  0
 44 46  1  0  0  0  0
 44 47  1  0  0  0  0
 46 47  1  0  0  0  0
 47 48  2  0  0  0  0
 49 50  2  0  0  0  0
 49 51  1  0  0  0  0
 51 52  2  0  0  0  0
 51 53  1  0  0  0  0
 53 54  2  0  0  0  0
M  CHG  1  28   1
M  END
$$$$