
 OpenBabel11262011173D

 54 63  0  0  1  0  0  0  0  0999 V2000
   -1.7830   -9.3627  -13.0569 F   0  0  0  0  0  0  0  0  0  0  0  0
   -1.8964   -8.1167  -13.5525 C   0  0  0  0  0  0  0  0  0  0  0  0
   -1.7887   -7.0389  -12.7723 C   0  0  0  0  0  0  0  0  0  0  0  0
   -1.5470   -7.1266  -11.4006 O   0  0  0  0  0  0  0  0  0  0  0  0
   -0.8067   -6.0055  -10.9041 C   0  0  2  0  0  0  0  0  0  0  0  0
   -0.4453   -6.1275   -9.4978 O   0  0  0  0  0  0  0  0  0  0  0  0
    0.7162   -6.8217   -9.1707 C   0  0  0  0  0  0  0  0  0  0  0  0
    1.3635   -6.6350   -7.9889 C   0  0  0  0  0  0  0  0  0  0  0  0
    2.4952   -7.3895   -7.6409 O   0  0  0  0  0  0  0  0  0  0  0  0
    2.8915   -8.4744   -8.4327 C   0  0  0  0  0  0  0  0  0  0  0  0
    2.3008   -8.7233   -9.6158 C   0  0  0  0  0  0  0  0  0  0  0  0
    1.1945   -7.8710  -10.1489 C   0  0  0  0  0  0  0  0  0  0  0  0
    2.6868   -9.8999  -10.4729 C   0  0  3  0  0  0  0  0  0  0  0  0
    3.0587   -9.4306  -11.7568 O   0  0  0  0  0  0  0  0  0  0  0  0
    3.2983  -10.4255  -12.6618 C   0  0  0  0  0  0  0  0  0  0  0  0
    3.2111  -10.2431  -13.8625 O   0  0  0  0  0  0  0  0  0  0  0  0
    3.5839  -11.6291  -12.1001 O   0  0  0  0  0  0  0  0  0  0  0  0
    4.3747  -11.6116  -10.9205 C   0  0  3  0  0  0  0  0  0  0  0  0
    3.8721  -10.6062   -9.9369 C   0  0  0  0  0  0  0  0  0  0  0  0
    4.4182  -10.3134   -8.7352 C   0  0  0  0  0  0  0  0  0  0  0  0
    3.9010   -9.2865   -7.9571 O   0  3  0  0  0  0  0  0  0  0  0  0
    5.6077  -11.0035   -8.1840 C   0  0  0  0  0  0  0  0  0  0  0  0
    6.9242  -10.4885   -8.4177 O   0  0  0  0  0  0  0  0  0  0  0  0
    6.3472  -10.4130   -7.1000 O   0  0  0  0  0  0  0  0  0  0  0  0
    4.2569  -12.8628  -10.2755 O   0  0  0  0  0  0  0  0  0  0  0  0
    0.9301   -5.6481   -6.9403 C   0  0  0  0  0  0  0  0  0  0  0  0
    0.7144   -4.3202   -7.3141 C   0  0  0  0  0  0  0  0  0  0  0  0
    0.1973   -3.4341   -6.4541 N   0  3  0  0  0  0  0  0  0  0  0  0
    0.0254   -2.1572   -6.8484 F   0  0  0  0  0  0  0  0  0  0  0  0
   -0.1629   -3.7606   -5.2278 N   0  0  0  0  0  0  0  0  0  0  0  0
    0.0820   -4.9872   -4.7664 C   0  0  0  0  0  0  0  0  0  0  0  0
    0.6979   -5.9721   -5.5717 C   0  0  0  0  0  0  0  0  0  0  0  0
    1.0489   -7.1934   -4.9397 C   0  0  0  0  0  0  0  0  0  0  0  0
    0.7578   -7.4332   -3.5869 C   0  0  0  0  0  0  0  0  0  0  0  0
    0.0445   -6.5142   -2.8491 C   0  0  0  0  0  0  0  0  0  0  0  0
   -0.2684   -5.2959   -3.4439 C   0  0  0  0  0  0  0  0  0  0  0  0
   -0.9206   -4.3745   -2.7180 F   0  0  0  0  0  0  0  0  0  0  0  0
   -0.2967   -6.7439   -1.5427 O   0  0  0  0  0  0  0  0  0  0  0  0
   -0.5228   -8.1493   -1.2377 C   0  0  1  0  0  0  0  0  0  0  0  0
    0.5250   -9.1001   -1.6657 C   0  0  0  0  0  0  0  0  0  0  0  0
    0.6751  -10.2220   -1.2149 O   0  0  0  0  0  0  0  0  0  0  0  0
    1.2533   -8.6400   -2.9171 C   0  0  0  0  0  0  0  0  0  0  0  0
    2.1992   -9.2413   -3.4050 O   0  0  0  0  0  0  0  0  0  0  0  0
   -1.1764   -8.4220   -0.0257 O   0  0  0  0  0  0  0  0  0  0  0  0
   -1.9254   -8.6868   -1.2498 C   0  0  1  0  0  0  0  0  0  0  0  0
   -2.7694   -7.6147   -1.8003 O   0  0  0  0  0  0  0  0  0  0  0  0
   -3.3217   -8.4583   -0.9436 C   0  0  0  0  0  0  0  0  0  0  0  0
   -4.3016   -9.1500   -1.0592 O   0  0  0  0  0  0  0  0  0  0  0  0
   -1.5957   -4.7145  -11.0693 C   0  0  0  0  0  0  0  0  0  0  0  0
   -1.6217   -3.8110  -10.2437 O   0  0  0  0  0  0  0  0  0  0  0  0
   -2.2295   -4.6090  -12.4435 C   0  0  0  0  0  0  0  0  0  0  0  0
   -2.9614   -3.6836  -12.7369 O   0  0  0  0  0  0  0  0  0  0  0  0
   -1.9068   -5.7109  -13.4323 C   0  0  0  0  0  0  0  0  0  0  0  0
   -1.6139   -5.4856  -14.5904 O   0  0  0  0  0  0  0  0  0  0  0  0
  1  2  1  0  0  0  0
  2  3  2  0  0  0  0
  3  4  1  0  0  0  0
  3 53  1  0  0  0  0
  4  5  1  0  0  0  0
  5  6  1  1  0  0  0
  5 49  1  0  0  0  0
  6  7  1  0  0  0  0
  7  8  2  0  0  0  0
  7 12  1  0  0  0  0
  8  9  1  0  0  0  0
  8 26  1  0  0  0  0
  9 10  1  0  0  0  0
 10 11  2  0  0  0  0
 10 21  1  0  0  0  0
 11 12  1  0  0  0  0
 11 13  1  0  0  0  0
 13 14  1  0  0  0  0
 13 19  1  0  0  0  0
 14 15  1  0  0  0  0
 15 16  2  0  0  0  0
 15 17  1  0  0  0  0
 17 18  1  0  0  0  0
 18 19  1  0  0  0  0
 18 25  1  0  0  0  0
 19 20  2  0  0  0  0
 20 21  1  0  0  0  0
 20 22  1  0  0  0  0
 22 23  1  0  0  0  0
 22 24  1  0  0  0  0
 23 24  1  0  0  0  0
 26 27  2  0  0  0  0
 26 32  1  0  0  0  0
 27 28  1  0  0  0  0
 28 29  1  0  0  0  0
 28 30  2  0  0  0  0
 30 31  1  0  0  0  0
 31 32  2  0  0  0  0
 31 36  1  0  0  0  0
 32 33  1  0  0  0  0
 33 34  2  0  0  0  0
 34 35  1  0  0  0  0
 34 42  1  0  0  0  0
 35 36  2  0  0  0  0
 35 38  1  0  0  0  0
 36 37  1  0  0  0  0
 39 38  1  6  0  0  0
 39 40  1  0  0  0  0
 39 44  1  0  0  0  0
 39 45  1  0  0  0  0
 40 41  2  0  0  0  0
 40 42  1  0  0  0  0
 42 43  2  0  0  0  0
 45 44  1  1  0  0  0
 45 46  1  0  0  0  0
 45 47  1  0  0  0  0
 46 47  1  0  0  0  0
 47 48  2  0  0  0  0
 49 50  2  0  0  0  0
 49 51  1  0  0  0  0
 51 52  2  0  0  0  0
 51 53  1  0  0  0  0
 53 54  2  0  0  0  0
M  CHG  2  21   1  28   1
M  END
$$$$