
 OpenBabel11242001153D

 54 63  0  0  1  0  0  0  0  0999 V2000
    5.1534  -24.3708   -6.7201 C   0  0  0  0  0  0  0  0  0  0  0  0
    6.4521  -23.7530   -6.5916 N   0  0  0  0  0  0  0  0  0  0  0  0
    6.5292  -22.6517   -5.7589 C   0  0  0  0  0  0  0  0  0  0  0  0
    7.7034  -22.4940   -5.1335 N   0  0  0  0  0  0  0  0  0  0  0  0
    7.8489  -21.4186   -4.3401 C   0  0  0  0  0  0  0  0  0  0  0  0
    6.8559  -20.4930   -4.1386 C   0  0  0  0  0  0  0  0  0  0  0  0
    5.6750  -20.7480   -4.8118 C   0  0  0  0  0  0  0  0  0  0  0  0
    5.4944  -21.8089   -5.6258 N   0  0  0  0  0  0  0  0  0  0  0  0
    4.5410  -19.8239   -4.6489 C   0  0  0  0  0  0  0  0  0  0  0  0
    4.6040  -18.8959   -3.6793 C   0  0  0  0  0  0  0  0  0  0  0  0
    5.7080  -18.7682   -2.8661 N   0  0  0  0  0  0  0  0  0  0  0  0
    7.0238  -19.2527   -3.3098 C   0  0  3  0  0  0  0  0  0  0  0  0
    7.7805  -18.2077   -4.0959 C   0  0  0  0  0  0  0  0  0  0  0  0
    7.0736  -17.5626   -5.1607 O   0  0  0  0  0  0  0  0  0  0  0  0
    7.3534  -16.8511   -3.9318 O   0  0  0  0  0  0  0  0  0  0  0  0
    3.5848  -17.9844   -3.4675 O   0  0  0  0  0  0  0  0  0  0  0  0
    2.4668  -18.0152   -4.2840 C   0  0  0  0  0  0  0  0  0  0  0  0
    2.3047  -18.8934   -5.2962 C   0  0  0  0  0  0  0  0  0  0  0  0
    3.3765  -19.9323   -5.5751 C   0  0  0  0  0  0  0  0  0  0  0  0
    1.1577  -18.8442   -6.0786 O   0  0  0  0  0  0  0  0  0  0  0  0
    1.0581  -19.7452   -7.1929 C   0  0  1  0  0  0  0  0  0  0  0  0
    0.7737  -21.0786   -6.7585 O   0  0  0  0  0  0  0  0  0  0  0  0
    0.7523  -21.9945   -7.8014 C   0  0  0  0  0  0  0  0  0  0  0  0
    1.0106  -23.2890   -7.5848 C   0  0  0  0  0  0  0  0  0  0  0  0
    1.3135  -23.8297   -6.3621 O   0  0  0  0  0  0  0  0  0  0  0  0
    0.4145  -21.5648   -9.1891 C   0  0  0  0  0  0  0  0  0  0  0  0
    0.7691  -22.1394  -10.2010 O   0  0  0  0  0  0  0  0  0  0  0  0
   -0.3248  -20.2408   -9.2254 C   0  0  0  0  0  0  0  0  0  0  0  0
   -1.1067  -19.9743  -10.1200 O   0  0  0  0  0  0  0  0  0  0  0  0
   -0.0595  -19.2623   -8.1031 C   0  0  0  0  0  0  0  0  0  0  0  0
   -0.6640  -18.2056   -7.9928 O   0  0  0  0  0  0  0  0  0  0  0  0
    1.4869  -16.9736   -3.9412 C   0  0  0  0  0  0  0  0  0  0  0  0
    1.6975  -15.6940   -4.4382 C   0  0  0  0  0  0  0  0  0  0  0  0
    0.8519  -14.7040   -4.1385 N   0  3  0  0  0  0  0  0  0  0  0  0
    1.0878  -13.4714   -4.6270 F   0  0  0  0  0  0  0  0  0  0  0  0
   -0.2092  -14.8807   -3.3697 N   0  0  0  0  0  0  0  0  0  0  0  0
   -0.4653  -16.0923   -2.8610 C   0  0  0  0  0  0  0  0  0  0  0  0
    0.3711  -17.1956   -3.1134 C   0  0  0  0  0  0  0  0  0  0  0  0
    0.0569  -18.4460   -2.5265 C   0  0  0  0  0  0  0  0  0  0  0  0
   -1.0916  -18.5976   -1.7439 C   0  0  0  0  0  0  0  0  0  0  0  0
   -1.9213  -17.5204   -1.5078 C   0  0  0  0  0  0  0  0  0  0  0  0
   -1.5881  -16.2805   -2.0505 C   0  0  0  0  0  0  0  0  0  0  0  0
   -2.3827  -15.2291   -1.7954 F   0  0  0  0  0  0  0  0  0  0  0  0
   -3.0183  -17.6249   -0.6968 O   0  0  0  0  0  0  0  0  0  0  0  0
   -3.7180  -18.8935   -0.8005 C   0  0  1  0  0  0  0  0  0  0  0  0
   -2.9071  -20.1296   -0.8396 C   0  0  0  0  0  0  0  0  0  0  0  0
   -3.3796  -21.2537   -0.8029 O   0  0  0  0  0  0  0  0  0  0  0  0
   -1.4463  -19.8934   -1.1605 C   0  0  0  0  0  0  0  0  0  0  0  0
   -0.5998  -20.7587   -1.0135 O   0  0  0  0  0  0  0  0  0  0  0  0
   -4.9238  -18.9779   -0.0829 O   0  0  0  0  0  0  0  0  0  0  0  0
   -5.0262  -18.9375   -1.5401 C   0  0  1  0  0  0  0  0  0  0  0  0
   -5.1773  -17.6217   -2.1954 O   0  0  0  0  0  0  0  0  0  0  0  0
   -6.2632  -18.2663   -1.8350 C   0  0  0  0  0  0  0  0  0  0  0  0
   -7.2526  -18.5822   -2.4668 O   0  0  0  0  0  0  0  0  0  0  0  0
  1  2  1  0  0  0  0
  2  3  1  0  0  0  0
  3  4  2  0  0  0  0
  3  8  1  0  0  0  0
  4  5  1  0  0  0  0
  5  6  2  0  0  0  0
  6  7  1  0  0  0  0
  6 12  1  0  0  0  0
  7  8  2  0  0  0  0
  7  9  1  0  0  0  0
  9 10  2  0  0  0  0
  9 19  1  0  0  0  0
 10 11  1  0  0  0  0
 10 16  1  0  0  0  0
 11 12  1  0  0  0  0
 12 13  1  0  0  0  0
 13 14  1  0  0  0  0
 13 15  1  0  0  0  0
 14 15  1  0  0  0  0
 16 17  1  0  0  0  0
 17 18  2  0  0  0  0
 17 32  1  0  0  0  0
 18 19  1  0  0  0  0
 18 20  1  0  0  0  0
 21 20  1  1  0  0  0
 21 22  1  0  0  0  0
 21 30  1  0  0  0  0
 22 23  1  0  0  0  0
 23 24  2  0  0  0  0
 23 26  1  0  0  0  0
 24 25  1  0  0  0  0
 26 27  2  0  0  0  0
 26 28  1  0  0  0  0
 28 29  2  0  0  0  0
 28 30  1  0  0  0  0
 30 31  2  0  0  0  0
 32 33  2  0  0  0  0
 32 38  1  0  0  0  0
 33 34  1  0  0  0  0
 34 35  1  0  0  0  0
 34 36  2  0  0  0  0
 36 37  1  0  0  0  0
 37 38  2  0  0  0  0
 37 42  1  0  0  0  0
 38 39  1  0  0  0  0
 39 40  2  0  0  0  0
 40 41  1  0  0  0  0
 40 48  1  0  0  0  0
 41 42  2  0  0  0  0
 41 44  1  0  0  0  0
 42 43  1  0  0  0  0
 45 44  1  1  0  0  0
 45 46  1  0  0  0  0
 45 50  1  0  0  0  0
 45 51  1  0  0  0  0
 46 47  2  0  0  0  0
 46 48  1  0  0  0  0
 48 49  2  0  0  0  0
 51 50  1  1  0  0  0
 51 52  1  0  0  0  0
 51 53  1  0  0  0  0
 52 53  1  0  0  0  0
 53 54  2  0  0  0  0
M  CHG  1  34   1
M  END
$$$$