
 OpenBabel11242001003D

 53 62  0  0  1  0  0  0  0  0999 V2000
   -9.8398   -6.0995  -10.3560 O   0  0  0  0  0  0  0  0  0  0  0  0
   -9.8569   -4.7365  -10.2133 C   0  0  0  0  0  0  0  0  0  0  0  0
   -9.2235   -4.0939   -9.2232 C   0  0  0  0  0  0  0  0  0  0  0  0
   -8.4939   -4.7733   -8.2549 O   0  0  0  0  0  0  0  0  0  0  0  0
   -7.3575   -4.0358   -7.7981 C   0  0  2  0  0  0  0  0  0  0  0  0
   -6.5255   -4.8167   -6.9089 O   0  0  0  0  0  0  0  0  0  0  0  0
   -5.5678   -5.6115   -7.5288 C   0  0  0  0  0  0  0  0  0  0  0  0
   -4.3947   -5.9139   -6.9273 C   0  0  0  0  0  0  0  0  0  0  0  0
   -3.4254   -6.7130   -7.5206 O   0  0  0  0  0  0  0  0  0  0  0  0
   -3.7327   -7.3959   -8.6830 C   0  0  0  0  0  0  0  0  0  0  0  0
   -4.8864   -7.2023   -9.3414 C   0  0  0  0  0  0  0  0  0  0  0  0
   -5.8966   -6.2034   -8.8858 C   0  0  0  0  0  0  0  0  0  0  0  0
   -5.2250   -8.0369  -10.5479 C   0  0  3  0  0  0  0  0  0  0  0  0
   -5.4968   -7.1488  -11.6689 N   0  0  0  0  0  0  0  0  0  0  0  0
   -5.8300   -7.7529  -12.8357 C   0  0  0  0  0  0  0  0  0  0  0  0
   -6.7775   -7.3331  -13.5906 N   0  0  0  0  0  0  0  0  0  0  0  0
   -5.0593   -8.8048  -13.1793 N   0  0  0  0  0  0  0  0  0  0  0  0
   -4.4910   -9.7244  -12.2220 C   0  0  0  0  0  0  0  0  0  0  0  0
   -4.1301   -8.9780  -10.9766 C   0  0  0  0  0  0  0  0  0  0  0  0
   -2.9739   -9.0731  -10.2814 C   0  0  0  0  0  0  0  0  0  0  0  0
   -2.8191   -8.3121   -9.1302 N   0  0  0  0  0  0  0  0  0  0  0  0
   -1.8319   -9.9421  -10.6478 C   0  0  0  0  0  0  0  0  0  0  0  0
   -0.7846   -9.4834  -11.5145 O   0  0  0  0  0  0  0  0  0  0  0  0
   -0.5113   -9.7181  -10.1196 O   0  0  0  0  0  0  0  0  0  0  0  0
   -3.9993   -5.4919   -5.5723 C   0  0  0  0  0  0  0  0  0  0  0  0
   -4.4488   -6.2537   -4.4997 C   0  0  0  0  0  0  0  0  0  0  0  0
   -4.0577   -5.9696   -3.2535 N   0  3  0  0  0  0  0  0  0  0  0  0
   -4.4486   -6.7720   -2.2446 F   0  0  0  0  0  0  0  0  0  0  0  0
   -3.2713   -4.9464   -2.9693 N   0  0  0  0  0  0  0  0  0  0  0  0
   -2.7885   -4.1879   -3.9601 C   0  0  0  0  0  0  0  0  0  0  0  0
   -3.0967   -4.4438   -5.3098 C   0  0  0  0  0  0  0  0  0  0  0  0
   -2.4641   -3.6713   -6.3150 C   0  0  0  0  0  0  0  0  0  0  0  0
   -1.5739   -2.6439   -5.9799 C   0  0  0  0  0  0  0  0  0  0  0  0
   -1.3374   -2.3416   -4.6476 C   0  0  0  0  0  0  0  0  0  0  0  0
   -1.9311   -3.1271   -3.6604 C   0  0  0  0  0  0  0  0  0  0  0  0
   -1.6600   -2.8610   -2.3725 F   0  0  0  0  0  0  0  0  0  0  0  0
   -0.5220   -1.3061   -4.2591 O   0  0  0  0  0  0  0  0  0  0  0  0
   -0.4369   -0.2436   -5.2466 C   0  0  1  0  0  0  0  0  0  0  0  0
   -0.0940   -0.6531   -6.6103 C   0  0  0  0  0  0  0  0  0  0  0  0
    0.7287   -0.0813   -7.3000 O   0  0  0  0  0  0  0  0  0  0  0  0
   -0.8582   -1.8973   -7.0316 C   0  0  0  0  0  0  0  0  0  0  0  0
   -0.8770   -2.2822   -8.1891 O   0  0  0  0  0  0  0  0  0  0  0  0
   -1.9795    0.9023   -5.1641 S   0  0  0  0  0  0  0  0  0  0  0  0
   -0.3935    1.1327   -4.8353 C   0  0  1  0  0  0  0  0  0  0  0  0
    0.0603    1.4292   -3.5258 O   0  0  0  0  0  0  0  0  0  0  0  0
    0.4504    2.1979   -4.5501 C   0  0  0  0  0  0  0  0  0  0  0  0
    0.3670    3.4198   -4.6996 O   0  0  0  0  0  0  0  0  0  0  0  0
   -7.8226   -2.7872   -7.0714 C   0  0  0  0  0  0  0  0  0  0  0  0
   -7.3922   -2.3895   -5.9981 O   0  0  0  0  0  0  0  0  0  0  0  0
   -8.8387   -2.0083   -7.8786 C   0  0  0  0  0  0  0  0  0  0  0  0
   -9.2333   -0.9200   -7.4972 O   0  0  0  0  0  0  0  0  0  0  0  0
   -9.3351   -2.6074   -9.1811 C   0  0  0  0  0  0  0  0  0  0  0  0
   -9.7122   -1.9163  -10.1103 O   0  0  0  0  0  0  0  0  0  0  0  0
  1  2  1  0  0  0  0
  2  3  2  0  0  0  0
  3  4  1  0  0  0  0
  3 52  1  0  0  0  0
  4  5  1  0  0  0  0
  5  6  1  1  0  0  0
  5 48  1  0  0  0  0
  6  7  1  0  0  0  0
  7  8  2  0  0  0  0
  7 12  1  0  0  0  0
  8  9  1  0  0  0  0
  8 25  1  0  0  0  0
  9 10  1  0  0  0  0
 10 11  2  0  0  0  0
 10 21  1  0  0  0  0
 11 12  1  0  0  0  0
 11 13  1  0  0  0  0
 13 14  1  0  0  0  0
 13 19  1  0  0  0  0
 14 15  1  0  0  0  0
 15 16  2  0  0  0  0
 15 17  1  0  0  0  0
 17 18  1  0  0  0  0
 18 19  1  0  0  0  0
 19 20  2  0  0  0  0
 20 21  1  0  0  0  0
 20 22  1  0  0  0  0
 22 23  1  0  0  0  0
 22 24  1  0  0  0  0
 23 24  1  0  0  0  0
 25 26  2  0  0  0  0
 25 31  1  0  0  0  0
 26 27  1  0  0  0  0
 27 28  1  0  0  0  0
 27 29  2  0  0  0  0
 29 30  1  0  0  0  0
 30 31  2  0  0  0  0
 30 35  1  0  0  0  0
 31 32  1  0  0  0  0
 32 33  2  0  0  0  0
 33 34  1  0  0  0  0
 33 41  1  0  0  0  0
 34 35  2  0  0  0  0
 34 37  1  0  0  0  0
 35 36  1  0  0  0  0
 38 37  1  1  0  0  0
 38 39  1  0  0  0  0
 38 43  1  0  0  0  0
 38 44  1  0  0  0  0
 39 40  2  0  0  0  0
 39 41  1  0  0  0  0
 41 42  2  0  0  0  0
 44 43  1  6  0  0  0
 44 45  1  0  0  0  0
 44 46  1  0  0  0  0
 45 46  1  0  0  0  0
 46 47  2  0  0  0  0
 48 49  2  0  0  0  0
 48 50  1  0  0  0  0
 50 51  2  0  0  0  0
 50 52  1  0  0  0  0
 52 53  2  0  0  0  0
M  CHG  1  27   1
M  END
$$$$