
 OpenBabel09242005483D

 50 58  0  0  1  0  0  0  0  0999 V2000
    8.7854    2.1818    3.6181 O   0  0  0  0  0  0  0  0  0  0  0  0
    7.7904    1.4897    3.7960 C   0  0  0  0  0  0  0  0  0  0  0  0
    6.8369    1.1781    2.6932 C   0  0  0  0  0  0  0  0  0  0  0  0
    5.6328    0.7084    3.0275 C   0  0  0  0  0  0  0  0  0  0  0  0
    4.6910    0.3663    1.9521 C   0  0  0  0  0  0  0  0  0  0  0  0
    3.5780   -0.0645    2.2062 O   0  0  0  0  0  0  0  0  0  0  0  0
    5.1779    0.5382    0.5320 C   0  0  0  0  0  0  0  0  0  0  0  0
    4.7332   -0.1519   -0.3746 O   0  0  0  0  0  0  0  0  0  0  0  0
    6.2805    1.5679    0.3897 C   0  0  2  0  0  0  0  0  0  0  0  0
    7.2701    1.3849    1.4066 O   0  0  0  0  0  0  0  0  0  0  0  0
    5.7270    2.8992    0.3367 O   0  0  0  0  0  0  0  0  0  0  0  0
    6.6017    3.9752    0.1611 C   0  0  0  0  0  0  0  0  0  0  0  0
    6.1642    5.2456    0.0019 C   0  0  0  0  0  0  0  0  0  0  0  0
    7.0075    6.3549   -0.0591 O   0  0  0  0  0  0  0  0  0  0  0  0
    8.3734    6.1764   -0.0429 C   0  0  0  0  0  0  0  0  0  0  0  0
    8.9379    4.9208   -0.0226 C   0  0  0  0  0  0  0  0  0  0  0  0
    8.0819    3.7178    0.1386 C   0  0  0  0  0  0  0  0  0  0  0  0
   10.3289    4.8314   -0.0824 C   0  0  0  0  0  0  0  0  0  0  0  0
   10.9603    3.5825   -0.0891 N   0  0  0  0  0  0  0  0  0  0  0  0
   12.3016    3.3901   -0.0950 C   0  0  0  0  0  0  0  0  0  0  0  0
   12.7863    2.2632   -0.0906 O   0  0  0  0  0  0  0  0  0  0  0  0
   13.0813    4.4950   -0.0931 N   0  0  0  0  0  0  0  0  0  0  0  0
   12.5987    5.8457   -0.2365 C   0  0  0  0  0  0  0  0  0  0  0  0
   11.1101    5.9801   -0.1284 C   0  0  0  0  0  0  0  0  0  0  0  0
   10.4681    7.2263   -0.1025 C   0  0  0  0  0  0  0  0  0  0  0  0
    9.1068    7.3102   -0.0605 N   0  0  0  0  0  0  0  0  0  0  0  0
   11.2622    8.5125   -0.1047 C   0  0  0  0  0  0  0  0  0  0  0  0
   11.6723    9.0275   -1.3803 O   0  0  0  0  0  0  0  0  0  0  0  0
   10.6458    9.7002   -0.6224 O   0  0  0  0  0  0  0  0  0  0  0  0
    4.7523    5.6179   -0.2321 C   0  0  0  0  0  0  0  0  0  0  0  0
    4.4543    5.7282   -1.5561 N   0  0  0  0  0  0  0  0  0  0  0  0
    3.2251    6.1626   -1.8927 C   0  0  0  0  0  0  0  0  0  0  0  0
    2.2480    6.4824   -0.9717 C   0  0  0  0  0  0  0  0  0  0  0  0
    2.5405    6.3587    0.3882 C   0  0  0  0  0  0  0  0  0  0  0  0
    3.8283    5.9281    0.7930 C   0  0  0  0  0  0  0  0  0  0  0  0
    4.0938    5.8626    2.1800 C   0  0  0  0  0  0  0  0  0  0  0  0
    3.0996    6.1777    3.1207 C   0  0  0  0  0  0  0  0  0  0  0  0
    1.8329    6.5660    2.7118 C   0  0  0  0  0  0  0  0  0  0  0  0
    1.5631    6.6739    1.3490 C   0  0  0  0  0  0  0  0  0  0  0  0
    0.8105    6.9017    3.5471 O   0  0  0  0  0  0  0  0  0  0  0  0
    0.8906    6.4451    4.8970 C   0  0  2  0  0  0  0  0  0  0  0  0
    2.2648    6.3616    5.5161 C   0  0  0  0  0  0  0  0  0  0  0  0
    2.4540    6.3463    6.7262 O   0  0  0  0  0  0  0  0  0  0  0  0
    3.3986    6.1068    4.5523 C   0  0  0  0  0  0  0  0  0  0  0  0
    4.5084    5.8068    4.9651 O   0  0  0  0  0  0  0  0  0  0  0  0
    0.1137    5.1705    5.0629 C   0  0  1  0  0  0  0  0  0  0  0  0
   -1.2960    5.2430    4.7341 O   0  0  0  0  0  0  0  0  0  0  0  0
    0.7985    3.9938    4.6305 O   0  0  0  0  0  0  0  0  0  0  0  0
    0.4851    4.0567    5.9471 C   0  0  0  0  0  0  0  0  0  0  0  0
   -0.2060    3.3178    6.5996 O   0  0  0  0  0  0  0  0  0  0  0  0
  1  2  2  0  0  0  0
  2  3  1  0  0  0  0
  3  4  2  0  0  0  0
  3 10  1  0  0  0  0
  4  5  1  0  0  0  0
  5  6  2  0  0  0  0
  5  7  1  0  0  0  0
  7  8  2  0  0  0  0
  7  9  1  0  0  0  0
  9 10  1  0  0  0  0
  9 11  1  1  0  0  0
 11 12  1  0  0  0  0
 12 13  2  0  0  0  0
 12 17  1  0  0  0  0
 13 14  1  0  0  0  0
 13 30  1  0  0  0  0
 14 15  1  0  0  0  0
 15 16  2  0  0  0  0
 15 26  1  0  0  0  0
 16 17  1  0  0  0  0
 16 18  1  0  0  0  0
 18 19  1  0  0  0  0
 18 24  2  0  0  0  0
 19 20  1  0  0  0  0
 20 21  2  0  0  0  0
 20 22  1  0  0  0  0
 22 23  1  0  0  0  0
 23 24  1  0  0  0  0
 24 25  1  0  0  0  0
 25 26  2  0  0  0  0
 25 27  1  0  0  0  0
 27 28  1  0  0  0  0
 27 29  1  0  0  0  0
 28 29  1  0  0  0  0
 30 31  2  0  0  0  0
 30 35  1  0  0  0  0
 31 32  1  0  0  0  0
 32 33  2  0  0  0  0
 33 34  1  0  0  0  0
 34 35  2  0  0  0  0
 34 39  1  0  0  0  0
 35 36  1  0  0  0  0
 36 37  2  0  0  0  0
 37 38  1  0  0  0  0
 37 44  1  0  0  0  0
 38 39  2  0  0  0  0
 38 40  1  0  0  0  0
 41 40  1  6  0  0  0
 41 42  1  0  0  0  0
 41 46  1  0  0  0  0
 42 43  2  0  0  0  0
 42 44  1  0  0  0  0
 44 45  2  0  0  0  0
 46 47  1  6  0  0  0
 46 48  1  0  0  0  0
 46 49  1  0  0  0  0
 48 49  1  0  0  0  0
 49 50  2  0  0  0  0
M  END
$$$$