
 OpenBabel11222023253D

 54 63  0  0  1  0  0  0  0  0999 V2000
    0.2826  -10.1516    6.7127 O   0  0  0  0  0  0  0  0  0  0  0  0
   -0.8527   -9.4281    6.6281 C   0  0  0  0  0  0  0  0  0  0  0  0
   -2.1061   -9.8851    6.7806 C   0  0  0  0  0  0  0  0  0  0  0  0
   -2.4547  -11.2247    6.8687 O   0  0  0  0  0  0  0  0  0  0  0  0
   -3.8603  -11.5705    6.9367 C   0  0  2  0  0  0  0  0  0  0  0  0
   -4.0528  -12.9818    6.8851 O   0  0  0  0  0  0  0  0  0  0  0  0
   -3.8892  -13.7743    5.7781 C   0  0  0  0  0  0  0  0  0  0  0  0
   -2.9514  -13.7318    4.7958 C   0  0  0  0  0  0  0  0  0  0  0  0
   -3.1499  -14.3916    3.5807 O   0  0  0  0  0  0  0  0  0  0  0  0
   -4.3180  -15.1102    3.3611 C   0  0  0  0  0  0  0  0  0  0  0  0
   -5.1487  -15.4350    4.3657 C   0  0  0  0  0  0  0  0  0  0  0  0
   -4.9208  -14.8990    5.7397 C   0  0  0  0  0  0  0  0  0  0  0  0
   -6.2762  -16.4148    4.1323 C   0  0  3  0  0  0  0  0  0  0  0  0
   -7.5309  -15.8371    4.5341 N   0  0  0  0  0  0  0  0  0  0  0  0
   -8.7127  -16.4389    4.2678 C   0  0  0  0  0  0  0  0  0  0  0  0
   -9.7272  -16.1456    4.8867 O   0  0  0  0  0  0  0  0  0  0  0  0
   -8.7227  -17.3511    3.2729 N   0  0  0  0  0  0  0  0  0  0  0  0
   -7.5828  -17.7851    2.5380 C   0  0  3  0  0  0  0  0  0  0  0  0
   -6.4503  -16.8324    2.6998 C   0  0  0  0  0  0  0  0  0  0  0  0
   -5.6493  -16.3448    1.7236 C   0  0  0  0  0  0  0  0  0  0  0  0
   -4.5841  -15.5215    2.0803 N   0  0  0  0  0  0  0  0  0  0  0  0
   -5.8084  -16.6403    0.2774 C   0  0  0  0  0  0  0  0  0  0  0  0
   -4.9254  -16.0853   -0.7157 O   0  0  0  0  0  0  0  0  0  0  0  0
   -4.8961  -17.4964   -0.4240 O   0  0  0  0  0  0  0  0  0  0  0  0
   -7.2113  -19.0280    3.0857 O   0  0  0  0  0  0  0  0  0  0  0  0
   -1.6810  -12.9746    4.7648 C   0  0  0  0  0  0  0  0  0  0  0  0
   -1.7513  -11.7264    4.1665 C   0  0  0  0  0  0  0  0  0  0  0  0
   -0.6633  -10.9598    4.1256 N   0  3  0  0  0  0  0  0  0  0  0  0
   -0.8097   -9.6721    3.7400 F   0  0  0  0  0  0  0  0  0  0  0  0
    0.5013  -11.3293    4.6700 N   0  0  0  0  0  0  0  0  0  0  0  0
    0.5844  -12.4457    5.4387 C   0  0  0  0  0  0  0  0  0  0  0  0
   -0.4328  -13.3915    5.3603 C   0  0  0  0  0  0  0  0  0  0  0  0
   -0.1143  -14.6654    5.9092 C   0  0  0  0  0  0  0  0  0  0  0  0
    0.9520  -14.8682    6.8255 C   0  0  0  0  0  0  0  0  0  0  0  0
    1.7405  -13.8111    7.2083 C   0  0  0  0  0  0  0  0  0  0  0  0
    1.6088  -12.6473    6.4396 C   0  0  0  0  0  0  0  0  0  0  0  0
    2.4083  -11.6081    6.7503 F   0  0  0  0  0  0  0  0  0  0  0  0
    2.6043  -13.8640    8.2824 O   0  0  0  0  0  0  0  0  0  0  0  0
    2.3163  -14.9128    9.2647 C   0  0  1  0  0  0  0  0  0  0  0  0
    1.9958  -16.2475    8.7236 C   0  0  0  0  0  0  0  0  0  0  0  0
    2.2355  -17.2986    9.2964 O   0  0  0  0  0  0  0  0  0  0  0  0
    1.1312  -16.1704    7.4816 C   0  0  0  0  0  0  0  0  0  0  0  0
    0.5076  -17.1394    7.0787 O   0  0  0  0  0  0  0  0  0  0  0  0
    3.1083  -14.9084   10.4373 O   0  0  0  0  0  0  0  0  0  0  0  0
    1.6888  -14.5949   10.6117 C   0  0  1  0  0  0  0  0  0  0  0  0
    1.3288  -13.1920   10.6329 O   0  0  0  0  0  0  0  0  0  0  0  0
    1.5895  -13.7638   11.7692 C   0  0  0  0  0  0  0  0  0  0  0  0
    0.9005  -13.8375   12.8133 O   0  0  0  0  0  0  0  0  0  0  0  0
   -4.7264  -10.6420    6.0942 C   0  0  0  0  0  0  0  0  0  0  0  0
   -5.3975  -10.8880    5.0950 O   0  0  0  0  0  0  0  0  0  0  0  0
   -4.4911   -9.2262    6.5455 C   0  0  0  0  0  0  0  0  0  0  0  0
   -5.4285   -8.5278    6.9332 O   0  0  0  0  0  0  0  0  0  0  0  0
   -3.0811   -8.7884    6.7156 C   0  0  0  0  0  0  0  0  0  0  0  0
   -2.7585   -7.6027    6.7671 O   0  0  0  0  0  0  0  0  0  0  0  0
  1  2  1  0  0  0  0
  2  3  2  0  0  0  0
  3  4  1  0  0  0  0
  3 53  1  0  0  0  0
  4  5  1  0  0  0  0
  5  6  1  6  0  0  0
  5 49  1  0  0  0  0
  6  7  1  0  0  0  0
  7  8  2  0  0  0  0
  7 12  1  0  0  0  0
  8  9  1  0  0  0  0
  8 26  1  0  0  0  0
  9 10  1  0  0  0  0
 10 11  2  0  0  0  0
 10 21  1  0  0  0  0
 11 12  1  0  0  0  0
 11 13  1  0  0  0  0
 13 14  1  0  0  0  0
 13 19  1  0  0  0  0
 14 15  1  0  0  0  0
 15 16  2  0  0  0  0
 15 17  1  0  0  0  0
 17 18  1  0  0  0  0
 18 19  1  0  0  0  0
 18 25  1  0  0  0  0
 19 20  2  0  0  0  0
 20 21  1  0  0  0  0
 20 22  1  0  0  0  0
 22 23  1  0  0  0  0
 22 24  1  0  0  0  0
 23 24  1  0  0  0  0
 26 27  2  0  0  0  0
 26 32  1  0  0  0  0
 27 28  1  0  0  0  0
 28 29  1  0  0  0  0
 28 30  2  0  0  0  0
 30 31  1  0  0  0  0
 31 32  2  0  0  0  0
 31 36  1  0  0  0  0
 32 33  1  0  0  0  0
 33 34  2  0  0  0  0
 34 35  1  0  0  0  0
 34 42  1  0  0  0  0
 35 36  2  0  0  0  0
 35 38  1  0  0  0  0
 36 37  1  0  0  0  0
 39 38  1  6  0  0  0
 39 40  1  0  0  0  0
 39 44  1  0  0  0  0
 39 45  1  0  0  0  0
 40 41  2  0  0  0  0
 40 42  1  0  0  0  0
 42 43  2  0  0  0  0
 45 44  1  1  0  0  0
 45 46  1  0  0  0  0
 45 47  1  0  0  0  0
 46 47  1  0  0  0  0
 47 48  2  0  0  0  0
 49 50  2  0  0  0  0
 49 51  1  0  0  0  0
 51 52  2  0  0  0  0
 51 53  1  0  0  0  0
 53 54  2  0  0  0  0
M  CHG  1  28   1
M  END
$$$$