
 OpenBabel11212020383D

 54 62  0  0  1  0  0  0  0  0999 V2000
    5.5524    5.0429    3.9541 O   0  0  0  0  0  0  0  0  0  0  0  0
    5.2595    5.0204    2.6128 C   0  0  0  0  0  0  0  0  0  0  0  0
    4.5110    4.0606    2.0614 C   0  0  0  0  0  0  0  0  0  0  0  0
    4.0509    2.9846    2.7998 O   0  0  0  0  0  0  0  0  0  0  0  0
    2.6358    3.0392    2.9120 C   0  0  2  0  0  0  0  0  0  0  0  0
    2.1660    1.9359    3.7262 O   0  0  0  0  0  0  0  0  0  0  0  0
    2.4629    1.9542    5.0883 C   0  0  0  0  0  0  0  0  0  0  0  0
    2.5831    0.8129    5.8153 C   0  0  0  0  0  0  0  0  0  0  0  0
    2.8592    0.8605    7.1877 O   0  0  0  0  0  0  0  0  0  0  0  0
    3.0408    2.0606    7.8605 C   0  0  0  0  0  0  0  0  0  0  0  0
    2.8577    3.2338    7.2347 C   0  0  0  0  0  0  0  0  0  0  0  0
    2.5599    3.3074    5.7666 C   0  0  0  0  0  0  0  0  0  0  0  0
    2.9680    4.5449    7.9627 C   0  0  3  0  0  0  0  0  0  0  0  0
    1.6689    5.1055    8.0148 O   0  0  0  0  0  0  0  0  0  0  0  0
    1.4905    6.2489    8.7331 C   0  0  0  0  0  0  0  0  0  0  0  0
    0.4649    6.9021    8.6382 O   0  0  0  0  0  0  0  0  0  0  0  0
    2.5046    6.6034    9.5587 O   0  0  0  0  0  0  0  0  0  0  0  0
    3.5083    5.7015   10.0104 C   0  0  3  0  0  0  0  0  0  0  0  0
    3.3939    4.3665    9.3694 C   0  0  0  0  0  0  0  0  0  0  0  0
    3.6052    3.1555    9.9325 C   0  0  0  0  0  0  0  0  0  0  0  0
    3.4004    1.9986    9.1921 O   0  3  0  0  0  0  0  0  0  0  0  0
    4.0886    2.9500   11.3206 C   0  0  0  0  0  0  0  0  0  0  0  0
    4.3156    1.6240   11.8240 O   0  0  0  0  0  0  0  0  0  0  0  0
    5.4263    2.5013   11.5661 O   0  0  0  0  0  0  0  0  0  0  0  0
    4.7773    6.1951    9.6364 O   0  0  0  0  0  0  0  0  0  0  0  0
    2.3892   -0.5879    5.2770 C   0  0  0  0  0  0  0  0  0  0  0  0
    1.5580   -0.6720    4.2297 N   0  0  0  0  0  0  0  0  0  0  0  0
    1.2969   -1.8531    3.7100 N   0  3  0  0  0  0  0  0  0  0  0  0
    0.3754   -1.9284    2.7294 F   0  0  0  0  0  0  0  0  0  0  0  0
    1.8721   -2.9660    4.1060 N   0  0  0  0  0  0  0  0  0  0  0  0
    2.6796   -2.9511    5.1628 C   0  0  0  0  0  0  0  0  0  0  0  0
    2.9382   -1.7563    5.8458 C   0  0  0  0  0  0  0  0  0  0  0  0
    3.6778   -1.8389    7.0485 C   0  0  0  0  0  0  0  0  0  0  0  0
    4.1005   -3.0592    7.5710 C   0  0  0  0  0  0  0  0  0  0  0  0
    4.6321   -3.1089    8.9320 C   0  0  0  0  0  0  0  0  0  0  0  0
    4.5370   -2.1283    9.6576 O   0  0  0  0  0  0  0  0  0  0  0  0
    5.2146   -4.4307    9.3715 C   0  0  0  0  0  0  0  0  0  0  0  0
    5.3659   -4.6702   10.5582 O   0  0  0  0  0  0  0  0  0  0  0  0
    5.5754   -5.3510    8.2231 C   0  0  1  0  0  0  0  0  0  0  0  0
    4.5421   -5.4069    7.2102 O   0  0  0  0  0  0  0  0  0  0  0  0
    3.9730   -4.2145    6.8347 C   0  0  0  0  0  0  0  0  0  0  0  0
    3.2706   -4.1638    5.6123 C   0  0  0  0  0  0  0  0  0  0  0  0
    2.9709   -5.3886    4.9676 N   0  0  0  0  0  0  0  0  0  0  0  0
    6.9522   -5.0419    7.6749 C   0  0  1  0  0  0  0  0  0  0  0  0
    8.0383   -5.1289    8.6148 O   0  0  0  0  0  0  0  0  0  0  0  0
    7.2331   -5.5522    6.3625 O   0  0  0  0  0  0  0  0  0  0  0  0
    7.2116   -4.2234    6.5039 C   0  0  0  0  0  0  0  0  0  0  0  0
    6.5684   -3.3452    5.9570 O   0  0  0  0  0  0  0  0  0  0  0  0
    1.9237    3.0007    1.5605 C   0  0  0  0  0  0  0  0  0  0  0  0
    0.7404    2.7233    1.4199 O   0  0  0  0  0  0  0  0  0  0  0  0
    2.7909    3.4156    0.3850 C   0  0  0  0  0  0  0  0  0  0  0  0
    2.4803    3.0891   -0.7477 O   0  0  0  0  0  0  0  0  0  0  0  0
    4.0566    4.2105    0.6543 C   0  0  0  0  0  0  0  0  0  0  0  0
    4.5703    4.9458   -0.1662 O   0  0  0  0  0  0  0  0  0  0  0  0
  1  2  1  0  0  0  0
  2  3  2  0  0  0  0
  3  4  1  0  0  0  0
  3 53  1  0  0  0  0
  4  5  1  0  0  0  0
  5  6  1  1  0  0  0
  5 49  1  0  0  0  0
  6  7  1  0  0  0  0
  7  8  2  0  0  0  0
  7 12  1  0  0  0  0
  8  9  1  0  0  0  0
  8 26  1  0  0  0  0
  9 10  1  0  0  0  0
 10 11  2  0  0  0  0
 10 21  1  0  0  0  0
 11 12  1  0  0  0  0
 11 13  1  0  0  0  0
 13 14  1  0  0  0  0
 13 19  1  0  0  0  0
 14 15  1  0  0  0  0
 15 16  2  0  0  0  0
 15 17  1  0  0  0  0
 17 18  1  0  0  0  0
 18 19  1  0  0  0  0
 18 25  1  0  0  0  0
 19 20  2  0  0  0  0
 20 21  1  0  0  0  0
 20 22  1  0  0  0  0
 22 23  1  0  0  0  0
 22 24  1  0  0  0  0
 23 24  1  0  0  0  0
 26 27  2  0  0  0  0
 26 32  1  0  0  0  0
 27 28  1  0  0  0  0
 28 29  1  0  0  0  0
 28 30  2  0  0  0  0
 30 31  1  0  0  0  0
 31 32  2  0  0  0  0
 31 42  1  0  0  0  0
 32 33  1  0  0  0  0
 33 34  2  0  0  0  0
 34 35  1  0  0  0  0
 34 41  1  0  0  0  0
 35 36  2  0  0  0  0
 35 37  1  0  0  0  0
 37 38  2  0  0  0  0
 39 37  1  1  0  0  0
 39 40  1  0  0  0  0
 39 44  1  0  0  0  0
 40 41  1  0  0  0  0
 41 42  2  0  0  0  0
 42 43  1  0  0  0  0
 44 45  1  1  0  0  0
 44 46  1  0  0  0  0
 44 47  1  0  0  0  0
 46 47  1  0  0  0  0
 47 48  2  0  0  0  0
 49 50  2  0  0  0  0
 49 51  1  0  0  0  0
 51 52  2  0  0  0  0
 51 53  1  0  0  0  0
 53 54  2  0  0  0  0
M  CHG  2  21   1  28   1
M  END
$$$$