
 OpenBabel11252002103D

 52 61  0  0  1  0  0  0  0  0999 V2000
   14.1108    2.3330  -12.2415 O   0  0  0  0  0  0  0  0  0  0  0  0
   14.0787    0.9632  -12.3236 C   0  0  0  0  0  0  0  0  0  0  0  0
   13.0122    0.2431  -11.9584 C   0  0  0  0  0  0  0  0  0  0  0  0
   11.8758    0.8664  -11.4547 O   0  0  0  0  0  0  0  0  0  0  0  0
   10.6789    0.2217  -11.8837 C   0  0  2  0  0  0  0  0  0  0  0  0
    9.4931    0.9665  -11.5458 O   0  0  0  0  0  0  0  0  0  0  0  0
    9.2956    2.2393  -12.0637 C   0  0  0  0  0  0  0  0  0  0  0  0
    8.2238    2.9762  -11.6854 C   0  0  0  0  0  0  0  0  0  0  0  0
    8.0071    4.2701  -12.1886 O   0  0  0  0  0  0  0  0  0  0  0  0
    8.7971    4.7772  -13.2171 C   0  0  0  0  0  0  0  0  0  0  0  0
    9.8789    4.1112  -13.6392 C   0  0  0  0  0  0  0  0  0  0  0  0
   10.2949    2.7946  -13.0535 C   0  0  0  0  0  0  0  0  0  0  0  0
   10.8024    4.7626  -14.5689 C   0  0  0  0  0  0  0  0  0  0  0  0
   11.9394    4.1019  -14.8295 N   0  0  0  0  0  0  0  0  0  0  0  0
   12.8602    4.7497  -15.5496 C   0  0  0  0  0  0  0  0  0  0  0  0
   12.6955    5.9781  -16.0547 N   0  0  0  0  0  0  0  0  0  0  0  0
   11.5340    6.5983  -15.7955 C   0  0  0  0  0  0  0  0  0  0  0  0
   10.5123    6.0205  -15.0663 C   0  0  0  0  0  0  0  0  0  0  0  0
    9.1778    6.6625  -14.8345 C   0  0  3  0  0  0  0  0  0  0  0  0
    8.4378    6.0393  -13.7167 N   0  0  0  0  0  0  0  0  0  0  0  0
    8.3313    6.5342  -16.0595 C   0  0  0  0  0  0  0  0  0  0  0  0
    6.9161    6.9520  -15.9499 N   0  3  0  0  0  0  0  0  0  0  0  0
    7.0228    5.8593  -15.9588 N   0  3  0  0  0  0  0  0  0  0  0  0
    7.1865    2.5006  -10.7027 C   0  0  0  0  0  0  0  0  0  0  0  0
    7.5760    1.7161   -9.6116 C   0  0  0  0  0  0  0  0  0  0  0  0
    6.6841    1.2651   -8.7233 N   0  3  0  0  0  0  0  0  0  0  0  0
    7.1074    0.4852   -7.7090 F   0  0  0  0  0  0  0  0  0  0  0  0
    5.4011    1.5663   -8.7908 N   0  0  0  0  0  0  0  0  0  0  0  0
    4.9505    2.3432   -9.7788 C   0  0  0  0  0  0  0  0  0  0  0  0
    5.8072    2.8323  -10.7860 C   0  0  0  0  0  0  0  0  0  0  0  0
    5.2290    3.6327  -11.8018 C   0  0  0  0  0  0  0  0  0  0  0  0
    3.8851    4.0175  -11.7747 C   0  0  0  0  0  0  0  0  0  0  0  0
    3.0514    3.5474  -10.7849 C   0  0  0  0  0  0  0  0  0  0  0  0
    3.5948    2.6997   -9.8136 C   0  0  0  0  0  0  0  0  0  0  0  0
    2.7872    2.2307   -8.8500 F   0  0  0  0  0  0  0  0  0  0  0  0
    1.7338    3.8901  -10.6760 O   0  0  0  0  0  0  0  0  0  0  0  0
    1.1517    4.7036  -11.7281 C   0  0  1  0  0  0  0  0  0  0  0  0
    2.0435    5.5971  -12.4822 C   0  0  0  0  0  0  0  0  0  0  0  0
    1.7745    6.7271  -12.8563 O   0  0  0  0  0  0  0  0  0  0  0  0
    3.4046    5.0017  -12.7504 C   0  0  0  0  0  0  0  0  0  0  0  0
    4.1277    5.3822  -13.6709 O   0  0  0  0  0  0  0  0  0  0  0  0
    0.1344    4.1053  -12.4898 O   0  0  0  0  0  0  0  0  0  0  0  0
   -0.2809    5.1553  -11.5450 C   0  0  1  0  0  0  0  0  0  0  0  0
   -0.6840    4.7433  -10.1940 O   0  0  0  0  0  0  0  0  0  0  0  0
   -1.6124    4.8362  -11.1212 C   0  0  0  0  0  0  0  0  0  0  0  0
   -2.6591    5.4294  -11.1773 O   0  0  0  0  0  0  0  0  0  0  0  0
   10.6459   -1.0993  -11.1486 C   0  0  0  0  0  0  0  0  0  0  0  0
    9.7696   -1.4401  -10.3669 O   0  0  0  0  0  0  0  0  0  0  0  0
   11.8585   -1.9451  -11.4802 C   0  0  0  0  0  0  0  0  0  0  0  0
   11.8303   -3.1489  -11.3066 O   0  0  0  0  0  0  0  0  0  0  0  0
   13.0557   -1.2443  -12.1141 C   0  0  0  0  0  0  0  0  0  0  0  0
   13.8864   -1.8358  -12.7786 O   0  0  0  0  0  0  0  0  0  0  0  0
  1  2  1  0  0  0  0
  2  3  2  0  0  0  0
  3  4  1  0  0  0  0
  3 51  1  0  0  0  0
  4  5  1  0  0  0  0
  5  6  1  1  0  0  0
  5 47  1  0  0  0  0
  6  7  1  0  0  0  0
  7  8  2  0  0  0  0
  7 12  1  0  0  0  0
  8  9  1  0  0  0  0
  8 24  1  0  0  0  0
  9 10  1  0  0  0  0
 10 11  2  0  0  0  0
 10 20  1  0  0  0  0
 11 12  1  0  0  0  0
 11 13  1  0  0  0  0
 13 14  2  0  0  0  0
 13 18  1  0  0  0  0
 14 15  1  0  0  0  0
 15 16  2  0  0  0  0
 16 17  1  0  0  0  0
 17 18  2  0  0  0  0
 18 19  1  0  0  0  0
 19 20  1  0  0  0  0
 19 21  1  0  0  0  0
 21 22  1  0  0  0  0
 21 23  1  0  0  0  0
 22 23  3  0  0  0  0
 24 25  2  0  0  0  0
 24 30  1  0  0  0  0
 25 26  1  0  0  0  0
 26 27  1  0  0  0  0
 26 28  2  0  0  0  0
 28 29  1  0  0  0  0
 29 30  2  0  0  0  0
 29 34  1  0  0  0  0
 30 31  1  0  0  0  0
 31 32  2  0  0  0  0
 32 33  1  0  0  0  0
 32 40  1  0  0  0  0
 33 34  2  0  0  0  0
 33 36  1  0  0  0  0
 34 35  1  0  0  0  0
 37 36  1  1  0  0  0
 37 38  1  0  0  0  0
 37 42  1  0  0  0  0
 37 43  1  0  0  0  0
 38 39  2  0  0  0  0
 38 40  1  0  0  0  0
 40 41  2  0  0  0  0
 43 42  1  6  0  0  0
 43 44  1  0  0  0  0
 43 45  1  0  0  0  0
 44 45  1  0  0  0  0
 45 46  2  0  0  0  0
 47 48  2  0  0  0  0
 47 49  1  0  0  0  0
 49 50  2  0  0  0  0
 49 51  1  0  0  0  0
 51 52  2  0  0  0  0
M  CHG  3  22   1  23   1  26   1
M  END
$$$$