
 OpenBabel11262014313D

 54 63  0  0  1  0  0  0  0  0999 V2000
   13.4945   -3.9477    1.6175 F   0  0  0  0  0  0  0  0  0  0  0  0
   14.2290   -3.0997    2.3601 C   0  0  0  0  0  0  0  0  0  0  0  0
   14.4965   -1.8535    1.9603 C   0  0  0  0  0  0  0  0  0  0  0  0
   14.0770   -1.3566    0.7342 O   0  0  0  0  0  0  0  0  0  0  0  0
   13.7013    0.0207    0.7428 C   0  0  2  0  0  0  0  0  0  0  0  0
   13.3322    0.4427   -0.6047 O   0  0  0  0  0  0  0  0  0  0  0  0
   14.2675    0.8245   -1.5606 C   0  0  0  0  0  0  0  0  0  0  0  0
   13.9313    1.2430   -2.8143 C   0  0  0  0  0  0  0  0  0  0  0  0
   14.9513    1.6639   -3.6754 O   0  0  0  0  0  0  0  0  0  0  0  0
   16.2915    1.7071   -3.3523 C   0  0  0  0  0  0  0  0  0  0  0  0
   16.6934    1.2675   -2.1630 C   0  0  0  0  0  0  0  0  0  0  0  0
   15.7288    0.7492   -1.1716 C   0  0  0  0  0  0  0  0  0  0  0  0
   18.1096    1.3743   -1.6984 C   0  0  3  0  0  0  0  0  0  0  0  0
   18.5496    0.0698   -1.3871 O   0  0  0  0  0  0  0  0  0  0  0  0
   19.8157   -0.0030   -0.8916 C   0  0  0  0  0  0  0  0  0  0  0  0
   20.2094   -0.9851   -0.2884 O   0  0  0  0  0  0  0  0  0  0  0  0
   20.5739    1.1027   -1.1055 O   0  0  0  0  0  0  0  0  0  0  0  0
   20.4018    1.8494   -2.3039 C   0  0  3  0  0  0  0  0  0  0  0  0
   18.9938    1.8603   -2.7756 C   0  0  0  0  0  0  0  0  0  0  0  0
   18.5430    2.2443   -3.9905 C   0  0  0  0  0  0  0  0  0  0  0  0
   17.1852    2.2082   -4.2748 O   0  3  0  0  0  0  0  0  0  0  0  0
   19.4073    2.7112   -5.0992 C   0  0  0  0  0  0  0  0  0  0  0  0
   19.4159    2.0073   -6.3498 O   0  0  0  0  0  0  0  0  0  0  0  0
   18.8226    3.3162   -6.2671 O   0  0  0  0  0  0  0  0  0  0  0  0
   20.6805    3.2123   -2.0492 O   0  0  0  0  0  0  0  0  0  0  0  0
   12.5326    1.2816   -3.4764 C   0  0  0  0  0  0  0  0  0  0  0  0
   11.4131    0.8540   -2.7362 C   0  0  0  0  0  0  0  0  0  0  0  0
   10.1625    0.7545   -3.3072 C   0  0  0  0  0  0  0  0  0  0  0  0
    9.1454    0.2942   -2.5750 F   0  0  0  0  0  0  0  0  0  0  0  0
    9.9641    1.0727   -4.6248 C   0  0  0  0  0  0  0  0  0  0  0  0
   11.0420    1.4800   -5.4001 C   0  0  0  0  0  0  0  0  0  0  0  0
   12.3141    1.6103   -4.8311 N   0  3  0  0  0  0  0  0  0  0  0  0
   13.2896    2.0184   -5.6826 C   0  0  0  0  0  0  0  0  0  0  0  0
   13.1540    2.1270   -7.0479 C   0  0  0  0  0  0  0  0  0  0  0  0
   11.9309    1.9880   -7.6387 C   0  0  0  0  0  0  0  0  0  0  0  0
   10.8667    1.7091   -6.7946 C   0  0  0  0  0  0  0  0  0  0  0  0
    9.6427    1.5857   -7.3255 F   0  0  0  0  0  0  0  0  0  0  0  0
   11.7519    2.0714   -8.9952 O   0  0  0  0  0  0  0  0  0  0  0  0
   12.9296    2.4970   -9.7513 C   0  0  1  0  0  0  0  0  0  0  0  0
   14.2123    1.9394   -9.3037 C   0  0  0  0  0  0  0  0  0  0  0  0
   14.9652    1.2032   -9.9080 O   0  0  0  0  0  0  0  0  0  0  0  0
   14.3841    2.2576   -7.8332 C   0  0  0  0  0  0  0  0  0  0  0  0
   15.4461    2.5016   -7.2765 O   0  0  0  0  0  0  0  0  0  0  0  0
   12.7524    2.8008  -11.1067 O   0  0  0  0  0  0  0  0  0  0  0  0
   13.0311    3.9190  -10.2122 C   0  0  1  0  0  0  0  0  0  0  0  0
   11.9177    4.6198   -9.5812 O   0  0  0  0  0  0  0  0  0  0  0  0
   12.3580    5.0775  -10.7334 C   0  0  0  0  0  0  0  0  0  0  0  0
   12.7954    6.1870  -11.0081 O   0  0  0  0  0  0  0  0  0  0  0  0
   14.6522    0.9965    1.4406 C   0  0  0  0  0  0  0  0  0  0  0  0
   14.7022    2.1991    1.2126 O   0  0  0  0  0  0  0  0  0  0  0  0
   15.6665    0.3199    2.3164 C   0  0  0  0  0  0  0  0  0  0  0  0
   16.7692    0.8207    2.4613 O   0  0  0  0  0  0  0  0  0  0  0  0
   15.3270   -1.0318    2.8780 C   0  0  0  0  0  0  0  0  0  0  0  0
   15.6748   -1.3567    3.9963 O   0  0  0  0  0  0  0  0  0  0  0  0
  1  2  1  0  0  0  0
  2  3  2  0  0  0  0
  3  4  1  0  0  0  0
  3 53  1  0  0  0  0
  4  5  1  0  0  0  0
  5  6  1  6  0  0  0
  5 49  1  0  0  0  0
  6  7  1  0  0  0  0
  7  8  2  0  0  0  0
  7 12  1  0  0  0  0
  8  9  1  0  0  0  0
  8 26  1  0  0  0  0
  9 10  1  0  0  0  0
 10 11  2  0  0  0  0
 10 21  1  0  0  0  0
 11 12  1  0  0  0  0
 11 13  1  0  0  0  0
 13 14  1  0  0  0  0
 13 19  1  0  0  0  0
 14 15  1  0  0  0  0
 15 16  2  0  0  0  0
 15 17  1  0  0  0  0
 17 18  1  0  0  0  0
 18 19  1  0  0  0  0
 18 25  1  0  0  0  0
 19 20  2  0  0  0  0
 20 21  1  0  0  0  0
 20 22  1  0  0  0  0
 22 23  1  0  0  0  0
 22 24  1  0  0  0  0
 23 24  1  0  0  0  0
 26 27  2  0  0  0  0
 26 32  1  0  0  0  0
 27 28  1  0  0  0  0
 28 29  1  0  0  0  0
 28 30  2  0  0  0  0
 30 31  1  0  0  0  0
 31 32  2  0  0  0  0
 31 36  1  0  0  0  0
 32 33  1  0  0  0  0
 33 34  2  0  0  0  0
 34 35  1  0  0  0  0
 34 42  1  0  0  0  0
 35 36  2  0  0  0  0
 35 38  1  0  0  0  0
 36 37  1  0  0  0  0
 39 38  1  1  0  0  0
 39 40  1  0  0  0  0
 39 44  1  0  0  0  0
 39 45  1  0  0  0  0
 40 41  2  0  0  0  0
 40 42  1  0  0  0  0
 42 43  2  0  0  0  0
 45 44  1  6  0  0  0
 45 46  1  0  0  0  0
 45 47  1  0  0  0  0
 46 47  1  0  0  0  0
 47 48  2  0  0  0  0
 49 50  2  0  0  0  0
 49 51  1  0  0  0  0
 51 52  2  0  0  0  0
 51 53  1  0  0  0  0
 53 54  2  0  0  0  0
M  CHG  2  21   1  32   1
M  END
$$$$