
 OpenBabel11252023533D

 54 63  0  0  1  0  0  0  0  0999 V2000
    5.4561  -10.3202  -10.5156 O   0  0  0  0  0  0  0  0  0  0  0  0
    5.1949   -9.8284  -11.7698 C   0  0  0  0  0  0  0  0  0  0  0  0
    5.6771   -8.6589  -12.2044 C   0  0  0  0  0  0  0  0  0  0  0  0
    6.4961   -7.8625  -11.4066 O   0  0  0  0  0  0  0  0  0  0  0  0
    7.1998   -6.8909  -12.1833 C   0  0  2  0  0  0  0  0  0  0  0  0
    8.0397   -6.0894  -11.3055 O   0  0  0  0  0  0  0  0  0  0  0  0
    9.3240   -6.4870  -10.9568 C   0  0  0  0  0  0  0  0  0  0  0  0
    9.8713   -6.0891   -9.7812 C   0  0  0  0  0  0  0  0  0  0  0  0
   11.1945   -6.4335   -9.4319 O   0  0  0  0  0  0  0  0  0  0  0  0
   12.0397   -7.0933  -10.3330 C   0  0  0  0  0  0  0  0  0  0  0  0
   11.5765   -7.5033  -11.5314 C   0  0  0  0  0  0  0  0  0  0  0  0
   10.1436   -7.2788  -11.9633 C   0  0  0  0  0  0  0  0  0  0  0  0
   12.4753   -8.2403  -12.5097 C   0  0  3  0  0  0  0  0  0  0  0  0
   12.5786   -7.4692  -13.6902 O   0  0  0  0  0  0  0  0  0  0  0  0
   13.4994   -7.8804  -14.5974 C   0  0  0  0  0  0  0  0  0  0  0  0
   13.4772   -7.3893  -15.7739 N   0  0  0  0  0  0  0  0  0  0  0  0
   14.4273   -8.7957  -14.2422 O   0  0  0  0  0  0  0  0  0  0  0  0
   14.7186   -9.0287  -12.9531 C   0  0  0  0  0  0  0  0  0  0  0  0
   15.6156   -9.7591  -12.5625 O   0  0  0  0  0  0  0  0  0  0  0  0
   13.8417   -8.3838  -11.9842 C   0  0  0  0  0  0  0  0  0  0  0  0
   14.2555   -7.9589  -10.7765 C   0  0  0  0  0  0  0  0  0  0  0  0
   13.3549   -7.3156   -9.9440 O   0  3  0  0  0  0  0  0  0  0  0  0
   15.6470   -8.0592  -10.2593 C   0  0  0  0  0  0  0  0  0  0  0  0
   16.5869   -6.9991  -10.4709 O   0  0  0  0  0  0  0  0  0  0  0  0
   16.0547   -7.2284   -9.1529 O   0  0  0  0  0  0  0  0  0  0  0  0
    9.1367   -5.3530   -8.6754 C   0  0  0  0  0  0  0  0  0  0  0  0
    7.7742   -5.5957   -8.4404 C   0  0  0  0  0  0  0  0  0  0  0  0
    7.2337   -5.2882   -7.2575 N   0  3  0  0  0  0  0  0  0  0  0  0
    5.9296   -5.5625   -7.0440 F   0  0  0  0  0  0  0  0  0  0  0  0
    7.9572   -4.8187   -6.2534 N   0  0  0  0  0  0  0  0  0  0  0  0
    9.2447   -4.4752   -6.4737 C   0  0  0  0  0  0  0  0  0  0  0  0
    9.8352   -4.6366   -7.7228 N   0  3  0  0  0  0  0  0  0  0  0  0
   11.0526   -4.0689   -7.9601 C   0  0  0  0  0  0  0  0  0  0  0  0
   11.8230   -3.5301   -6.9374 C   0  0  0  0  0  0  0  0  0  0  0  0
   11.3624   -3.5189   -5.6407 C   0  0  0  0  0  0  0  0  0  0  0  0
   10.0569   -3.9592   -5.4320 C   0  0  0  0  0  0  0  0  0  0  0  0
    9.5479   -3.9152   -4.1939 F   0  0  0  0  0  0  0  0  0  0  0  0
   12.1295   -3.0895   -4.5808 O   0  0  0  0  0  0  0  0  0  0  0  0
   13.5457   -2.8462   -4.8845 C   0  0  1  0  0  0  0  0  0  0  0  0
   13.7981   -2.1869   -6.1703 C   0  0  0  0  0  0  0  0  0  0  0  0
   14.2271   -1.0727   -6.3762 O   0  0  0  0  0  0  0  0  0  0  0  0
   13.1681   -3.0525   -7.2419 C   0  0  0  0  0  0  0  0  0  0  0  0
   13.7211   -3.4826   -8.2378 O   0  0  0  0  0  0  0  0  0  0  0  0
   14.4263   -2.6505   -3.8142 O   0  0  0  0  0  0  0  0  0  0  0  0
   14.5664   -3.9006   -4.5450 C   0  0  1  0  0  0  0  0  0  0  0  0
   13.7957   -5.0583   -4.1187 O   0  0  0  0  0  0  0  0  0  0  0  0
   15.0102   -4.9158   -3.6156 C   0  0  0  0  0  0  0  0  0  0  0  0
   15.9373   -5.7089   -3.6933 O   0  0  0  0  0  0  0  0  0  0  0  0
    6.1434   -5.9816  -12.8334 C   0  0  0  0  0  0  0  0  0  0  0  0
    6.1262   -4.7692  -12.6130 O   0  0  0  0  0  0  0  0  0  0  0  0
    5.1383   -6.7004  -13.7222 C   0  0  3  0  0  0  0  0  0  0  0  0
    5.2904   -8.1983  -13.5784 C   0  0  0  0  0  0  0  0  0  0  0  0
    5.1738   -8.9902  -14.5051 O   0  0  0  0  0  0  0  0  0  0  0  0
    3.8655   -6.3157  -13.4173 F   0  0  0  0  0  0  0  0  0  0  0  0
  1  2  1  0  0  0  0
  2  3  2  0  0  0  0
  3  4  1  0  0  0  0
  3 52  1  0  0  0  0
  4  5  1  0  0  0  0
  5  6  1  1  0  0  0
  5 49  1  0  0  0  0
  6  7  1  0  0  0  0
  7  8  2  0  0  0  0
  7 12  1  0  0  0  0
  8  9  1  0  0  0  0
  8 26  1  0  0  0  0
  9 10  1  0  0  0  0
 10 11  2  0  0  0  0
 10 22  1  0  0  0  0
 11 12  1  0  0  0  0
 11 13  1  0  0  0  0
 13 14  1  0  0  0  0
 13 20  1  0  0  0  0
 14 15  1  0  0  0  0
 15 16  2  0  0  0  0
 15 17  1  0  0  0  0
 17 18  1  0  0  0  0
 18 19  2  0  0  0  0
 18 20  1  0  0  0  0
 20 21  2  0  0  0  0
 21 22  1  0  0  0  0
 21 23  1  0  0  0  0
 23 24  1  0  0  0  0
 23 25  1  0  0  0  0
 24 25  1  0  0  0  0
 26 27  2  0  0  0  0
 26 32  1  0  0  0  0
 27 28  1  0  0  0  0
 28 29  1  0  0  0  0
 28 30  2  0  0  0  0
 30 31  1  0  0  0  0
 31 32  2  0  0  0  0
 31 36  1  0  0  0  0
 32 33  1  0  0  0  0
 33 34  2  0  0  0  0
 34 35  1  0  0  0  0
 34 42  1  0  0  0  0
 35 36  2  0  0  0  0
 35 38  1  0  0  0  0
 36 37  1  0  0  0  0
 39 38  1  1  0  0  0
 39 40  1  0  0  0  0
 39 44  1  0  0  0  0
 39 45  1  0  0  0  0
 40 41  2  0  0  0  0
 40 42  1  0  0  0  0
 42 43  2  0  0  0  0
 45 44  1  1  0  0  0
 45 46  1  0  0  0  0
 45 47  1  0  0  0  0
 46 47  1  0  0  0  0
 47 48  2  0  0  0  0
 49 50  2  0  0  0  0
 49 51  1  0  0  0  0
 51 52  1  0  0  0  0
 51 54  1  0  0  0  0
 52 53  2  0  0  0  0
M  CHG  3  22   1  28   1  32   1
M  END
$$$$