
 OpenBabel11212021233D

 53 61  0  0  1  0  0  0  0  0999 V2000
    7.4403   -0.2836    4.8434 O   0  0  0  0  0  0  0  0  0  0  0  0
    7.0363    0.9056    4.2880 C   0  0  0  0  0  0  0  0  0  0  0  0
    5.7738    1.1351    3.9077 C   0  0  0  0  0  0  0  0  0  0  0  0
    4.8218    0.1361    4.0325 O   0  0  0  0  0  0  0  0  0  0  0  0
    3.4800    0.5771    4.2089 C   0  0  2  0  0  0  0  0  0  0  0  0
    2.5961   -0.5530    4.3128 O   0  0  0  0  0  0  0  0  0  0  0  0
    2.7799   -1.4099    5.3964 C   0  0  0  0  0  0  0  0  0  0  0  0
    2.4621   -2.7269    5.3286 C   0  0  0  0  0  0  0  0  0  0  0  0
    2.6202   -3.5822    6.4300 O   0  0  0  0  0  0  0  0  0  0  0  0
    3.0377   -3.0769    7.6653 C   0  0  0  0  0  0  0  0  0  0  0  0
    3.2933   -1.7675    7.8279 C   0  0  0  0  0  0  0  0  0  0  0  0
    3.2377   -0.7971    6.6933 C   0  0  0  0  0  0  0  0  0  0  0  0
    3.6611   -1.1769    9.1571 C   0  0  3  0  0  0  0  0  0  0  0  0
    2.6162   -0.2978    9.5209 O   0  0  0  0  0  0  0  0  0  0  0  0
    2.8570    0.2871   10.7953 C   0  0  1  0  0  0  0  0  0  0  0  0
    1.7502    1.0087   11.0860 F   0  0  0  0  0  0  0  0  0  0  0  0
    2.9796   -0.6978   11.8063 O   0  0  0  0  0  0  0  0  0  0  0  0
    4.0557   -1.5825   11.5458 C   0  0  0  0  0  0  0  0  0  0  0  0
    3.7822   -2.2237   10.2181 C   0  0  0  0  0  0  0  0  0  0  0  0
    3.5586   -3.5356    9.9765 C   0  0  0  0  0  0  0  0  0  0  0  0
    3.1737   -3.9632    8.7121 O   0  3  0  0  0  0  0  0  0  0  0  0
    3.6255   -4.5918   11.0137 C   0  0  0  0  0  0  0  0  0  0  0  0
    2.4610   -4.9826   11.7498 O   0  0  0  0  0  0  0  0  0  0  0  0
    3.0269   -5.8789   10.7746 O   0  0  0  0  0  0  0  0  0  0  0  0
    1.8293   -3.3428    4.1144 C   0  0  0  0  0  0  0  0  0  0  0  0
    1.0183   -2.4918    3.4456 N   0  0  0  0  0  0  0  0  0  0  0  0
    0.4133   -2.8780    2.3393 N   0  3  0  0  0  0  0  0  0  0  0  0
   -0.3820   -1.9978    1.7019 F   0  0  0  0  0  0  0  0  0  0  0  0
    0.5519   -4.1085    1.8436 C   0  0  0  0  0  0  0  0  0  0  0  0
    1.3322   -5.0507    2.5015 C   0  0  0  0  0  0  0  0  0  0  0  0
    1.9937   -4.6866    3.6900 C   0  0  0  0  0  0  0  0  0  0  0  0
    2.7520   -5.7071    4.3232 C   0  0  0  0  0  0  0  0  0  0  0  0
    2.8386   -7.0098    3.7895 C   0  0  0  0  0  0  0  0  0  0  0  0
    3.5849   -8.0450    4.5071 C   0  0  0  0  0  0  0  0  0  0  0  0
    4.0243   -7.8149    5.6244 O   0  0  0  0  0  0  0  0  0  0  0  0
    3.7319   -9.3881    3.8244 C   0  0  0  0  0  0  0  0  0  0  0  0
    4.0739  -10.3661    4.4713 O   0  0  0  0  0  0  0  0  0  0  0  0
    3.4375   -9.3801    2.3383 C   0  0  1  0  0  0  0  0  0  0  0  0
    2.3199   -8.5444    1.9782 O   0  0  0  0  0  0  0  0  0  0  0  0
    2.2169   -7.3335    2.5983 C   0  0  0  0  0  0  0  0  0  0  0  0
    1.4565   -6.3483    1.9738 C   0  0  0  0  0  0  0  0  0  0  0  0
    0.8352   -6.6317    0.8190 F   0  0  0  0  0  0  0  0  0  0  0  0
    4.6776   -9.1014    1.5203 C   0  0  1  0  0  0  0  0  0  0  0  0
    5.7694  -10.0231    1.6842 O   0  0  0  0  0  0  0  0  0  0  0  0
    4.4574   -8.6581    0.1713 O   0  0  0  0  0  0  0  0  0  0  0  0
    5.0300   -7.7880    1.0116 C   0  0  0  0  0  0  0  0  0  0  0  0
    4.7056   -6.6657    1.3651 O   0  0  0  0  0  0  0  0  0  0  0  0
    3.0859    1.4699    3.0495 C   0  0  0  0  0  0  0  0  0  0  0  0
    2.1751    1.2842    2.2595 O   0  0  0  0  0  0  0  0  0  0  0  0
    3.9842    2.6752    3.0017 C   0  0  0  0  0  0  0  0  0  0  0  0
    3.4992    3.7858    2.8781 O   0  0  0  0  0  0  0  0  0  0  0  0
    5.4539    2.4741    3.3197 C   0  0  0  0  0  0  0  0  0  0  0  0
    6.2784    3.3526    3.1402 O   0  0  0  0  0  0  0  0  0  0  0  0
  1  2  1  0  0  0  0
  2  3  2  0  0  0  0
  3  4  1  0  0  0  0
  3 52  1  0  0  0  0
  4  5  1  0  0  0  0
  5  6  1  6  0  0  0
  5 48  1  0  0  0  0
  6  7  1  0  0  0  0
  7  8  2  0  0  0  0
  7 12  1  0  0  0  0
  8  9  1  0  0  0  0
  8 25  1  0  0  0  0
  9 10  1  0  0  0  0
 10 11  2  0  0  0  0
 10 21  1  0  0  0  0
 11 12  1  0  0  0  0
 11 13  1  0  0  0  0
 13 14  1  0  0  0  0
 13 19  1  0  0  0  0
 14 15  1  0  0  0  0
 15 16  1  1  0  0  0
 15 17  1  0  0  0  0
 17 18  1  0  0  0  0
 18 19  1  0  0  0  0
 19 20  2  0  0  0  0
 20 21  1  0  0  0  0
 20 22  1  0  0  0  0
 22 23  1  0  0  0  0
 22 24  1  0  0  0  0
 23 24  1  0  0  0  0
 25 26  2  0  0  0  0
 25 31  1  0  0  0  0
 26 27  1  0  0  0  0
 27 28  1  0  0  0  0
 27 29  2  0  0  0  0
 29 30  1  0  0  0  0
 30 31  2  0  0  0  0
 30 41  1  0  0  0  0
 31 32  1  0  0  0  0
 32 33  2  0  0  0  0
 33 34  1  0  0  0  0
 33 40  1  0  0  0  0
 34 35  2  0  0  0  0
 34 36  1  0  0  0  0
 36 37  2  0  0  0  0
 38 36  1  1  0  0  0
 38 39  1  0  0  0  0
 38 43  1  0  0  0  0
 39 40  1  0  0  0  0
 40 41  2  0  0  0  0
 41 42  1  0  0  0  0
 43 44  1  1  0  0  0
 43 45  1  0  0  0  0
 43 46  1  0  0  0  0
 45 46  1  0  0  0  0
 46 47  2  0  0  0  0
 48 49  2  0  0  0  0
 48 50  1  0  0  0  0
 50 51  2  0  0  0  0
 50 52  1  0  0  0  0
 52 53  2  0  0  0  0
M  CHG  2  21   1  27   1
M  END
$$$$