
 OpenBabel11232002443D

 54 62  0  0  1  0  0  0  0  0999 V2000
    2.7470   -2.0133    0.9624 O   0  0  0  0  0  0  0  0  0  0  0  0
    3.8855   -2.0957    1.7292 C   0  0  0  0  0  0  0  0  0  0  0  0
    4.1013   -1.3165    2.8001 C   0  0  0  0  0  0  0  0  0  0  0  0
    3.1493   -0.3976    3.2065 N   0  0  0  0  0  0  0  0  0  0  0  0
    3.5330    0.6341    3.8729 C   0  0  0  0  0  0  0  0  0  0  0  0
    2.7436    1.6446    4.3134 O   0  0  0  0  0  0  0  0  0  0  0  0
    1.3263    1.6869    4.2092 C   0  0  0  0  0  0  0  0  0  0  0  0
    0.6714    2.8688    4.1156 C   0  0  0  0  0  0  0  0  0  0  0  0
   -0.7345    2.8992    4.0691 O   0  0  0  0  0  0  0  0  0  0  0  0
   -1.4850    1.7260    4.2160 C   0  0  0  0  0  0  0  0  0  0  0  0
   -0.8868    0.5370    4.4091 C   0  0  0  0  0  0  0  0  0  0  0  0
    0.5982    0.3742    4.3361 C   0  0  0  0  0  0  0  0  0  0  0  0
   -1.6630   -0.7235    4.6746 C   0  0  3  0  0  0  0  0  0  0  0  0
   -1.3965   -1.0968    6.0158 O   0  0  0  0  0  0  0  0  0  0  0  0
   -2.0758   -2.1558    6.5352 C   0  0  0  0  0  0  0  0  0  0  0  0
   -1.7267   -2.6789    7.5806 O   0  0  0  0  0  0  0  0  0  0  0  0
   -3.1573   -2.5747    5.8348 O   0  0  0  0  0  0  0  0  0  0  0  0
   -3.8265   -1.7767    4.8646 C   0  0  3  0  0  0  0  0  0  0  0  0
   -3.1208   -0.4982    4.5916 C   0  0  0  0  0  0  0  0  0  0  0  0
   -3.6686    0.7081    4.3273 C   0  0  0  0  0  0  0  0  0  0  0  0
   -2.8606    1.8267    4.1634 O   0  3  0  0  0  0  0  0  0  0  0  0
   -5.1279    0.9357    4.2240 C   0  0  0  0  0  0  0  0  0  0  0  0
   -5.8986    1.3015    5.3745 O   0  0  0  0  0  0  0  0  0  0  0  0
   -5.6675    2.2637    4.3270 O   0  0  0  0  0  0  0  0  0  0  0  0
   -3.8344   -2.4613    3.6284 O   0  0  0  0  0  0  0  0  0  0  0  0
    1.3556    4.2234    4.0659 C   0  0  0  0  0  0  0  0  0  0  0  0
    2.5720    4.4072    4.7380 C   0  0  0  0  0  0  0  0  0  0  0  0
    3.2372    5.5662    4.6981 N   0  3  0  0  0  0  0  0  0  0  0  0
    4.4255    5.6620    5.3262 F   0  0  0  0  0  0  0  0  0  0  0  0
    2.7751    6.6260    4.0757 N   0  0  0  0  0  0  0  0  0  0  0  0
    1.6087    6.5604    3.4392 C   0  0  0  0  0  0  0  0  0  0  0  0
    0.8419    5.3715    3.3945 C   0  0  0  0  0  0  0  0  0  0  0  0
   -0.3745    5.4289    2.6721 C   0  0  0  0  0  0  0  0  0  0  0  0
   -0.8127    6.6044    2.0444 C   0  0  0  0  0  0  0  0  0  0  0  0
   -2.0938    6.6135    1.3375 C   0  0  0  0  0  0  0  0  0  0  0  0
   -2.8376    5.6460    1.4052 O   0  0  0  0  0  0  0  0  0  0  0  0
   -2.4374    7.8764    0.5811 C   0  0  0  0  0  0  0  0  0  0  0  0
   -3.5969    8.1153    0.2840 O   0  0  0  0  0  0  0  0  0  0  0  0
   -1.2443    8.7530    0.2629 C   0  0  1  0  0  0  0  0  0  0  0  0
   -0.3397    8.8862    1.3790 O   0  0  0  0  0  0  0  0  0  0  0  0
   -0.0391    7.7460    2.0676 C   0  0  0  0  0  0  0  0  0  0  0  0
    1.1523    7.7097    2.7882 C   0  0  0  0  0  0  0  0  0  0  0  0
    1.9122    8.8163    2.8328 F   0  0  0  0  0  0  0  0  0  0  0  0
   -0.5640    8.3308   -1.0191 C   0  0  1  0  0  0  0  0  0  0  0  0
   -1.3716    8.3919   -2.2080 O   0  0  0  0  0  0  0  0  0  0  0  0
    0.7943    8.7582   -1.1809 O   0  0  0  0  0  0  0  0  0  0  0  0
    0.5831    7.4410   -1.0891 C   0  0  0  0  0  0  0  0  0  0  0  0
    1.0095    6.5984   -0.3150 O   0  0  0  0  0  0  0  0  0  0  0  0
    4.9481    0.8956    4.2730 C   0  0  0  0  0  0  0  0  0  0  0  0
    5.3231    2.0391    4.4717 O   0  0  0  0  0  0  0  0  0  0  0  0
    5.7993   -0.3360    4.3973 C   0  0  0  0  0  0  0  0  0  0  0  0
    6.6561   -0.4033    5.2577 O   0  0  0  0  0  0  0  0  0  0  0  0
    5.4346   -1.4916    3.4832 C   0  0  0  0  0  0  0  0  0  0  0  0
    6.1892   -2.4307    3.3067 O   0  0  0  0  0  0  0  0  0  0  0  0
  1  2  1  0  0  0  0
  2  3  2  0  0  0  0
  3  4  1  0  0  0  0
  3 53  1  0  0  0  0
  4  5  2  0  0  0  0
  5  6  1  0  0  0  0
  5 49  1  0  0  0  0
  6  7  1  0  0  0  0
  7  8  2  0  0  0  0
  7 12  1  0  0  0  0
  8  9  1  0  0  0  0
  8 26  1  0  0  0  0
  9 10  1  0  0  0  0
 10 11  2  0  0  0  0
 10 21  1  0  0  0  0
 11 12  1  0  0  0  0
 11 13  1  0  0  0  0
 13 14  1  0  0  0  0
 13 19  1  0  0  0  0
 14 15  1  0  0  0  0
 15 16  2  0  0  0  0
 15 17  1  0  0  0  0
 17 18  1  0  0  0  0
 18 19  1  0  0  0  0
 18 25  1  0  0  0  0
 19 20  2  0  0  0  0
 20 21  1  0  0  0  0
 20 22  1  0  0  0  0
 22 23  1  0  0  0  0
 22 24  1  0  0  0  0
 23 24  1  0  0  0  0
 26 27  2  0  0  0  0
 26 32  1  0  0  0  0
 27 28  1  0  0  0  0
 28 29  1  0  0  0  0
 28 30  2  0  0  0  0
 30 31  1  0  0  0  0
 31 32  2  0  0  0  0
 31 42  1  0  0  0  0
 32 33  1  0  0  0  0
 33 34  2  0  0  0  0
 34 35  1  0  0  0  0
 34 41  1  0  0  0  0
 35 36  2  0  0  0  0
 35 37  1  0  0  0  0
 37 38  2  0  0  0  0
 39 37  1  1  0  0  0
 39 40  1  0  0  0  0
 39 44  1  0  0  0  0
 40 41  1  0  0  0  0
 41 42  2  0  0  0  0
 42 43  1  0  0  0  0
 44 45  1  6  0  0  0
 44 46  1  0  0  0  0
 44 47  1  0  0  0  0
 46 47  1  0  0  0  0
 47 48  2  0  0  0  0
 49 50  2  0  0  0  0
 49 51  1  0  0  0  0
 51 52  2  0  0  0  0
 51 53  1  0  0  0  0
 53 54  2  0  0  0  0
M  CHG  2  21   1  28   1
M  END
$$$$