
 OpenBabel09222006203D

 50 58  0  0  1  0  0  0  0  0999 V2000
    1.7322    0.1930    0.9757 O   0  0  0  0  0  0  0  0  0  0  0  0
    2.6045   -0.0396    0.1455 C   0  0  0  0  0  0  0  0  0  0  0  0
    3.0290   -1.2986   -0.1128 N   0  0  0  0  0  0  0  0  0  0  0  0
    3.8963   -1.6607   -1.2140 C   0  0  0  0  0  0  0  0  0  0  0  0
    4.6196   -0.4945   -1.7981 C   0  0  0  0  0  0  0  0  0  0  0  0
    4.2569    0.7961   -1.4486 C   0  0  0  0  0  0  0  0  0  0  0  0
    3.2103    0.9688   -0.5335 N   0  0  0  0  0  0  0  0  0  0  0  0
    4.9373    1.8974   -1.9851 C   0  0  0  0  0  0  0  0  0  0  0  0
    4.6220    3.2888   -1.5648 C   0  0  0  0  0  0  0  0  0  0  0  0
    5.6140    4.3189   -2.0263 C   0  0  0  0  0  0  0  0  0  0  0  0
    6.5602    3.9894   -2.9388 C   0  0  0  0  0  0  0  0  0  0  0  0
    6.6662    2.6994   -3.4794 O   0  0  0  0  0  0  0  0  0  0  0  0
    5.9408    1.6615   -2.9129 C   0  0  0  0  0  0  0  0  0  0  0  0
    6.2951    0.4157   -3.3050 N   0  0  0  0  0  0  0  0  0  0  0  0
    5.6337   -0.6083   -2.7278 C   0  0  0  0  0  0  0  0  0  0  0  0
    6.0611   -1.8305   -3.1372 O   0  0  0  0  0  0  0  0  0  0  0  0
    7.5197    4.9598   -3.5562 C   0  0  0  0  0  0  0  0  0  0  0  0
    7.0399    5.5401   -4.6889 N   0  0  0  0  0  0  0  0  0  0  0  0
    7.8533    6.3857   -5.3620 C   0  0  0  0  0  0  0  0  0  0  0  0
    9.1504    6.6878   -4.9860 C   0  0  0  0  0  0  0  0  0  0  0  0
    9.6617    6.1084   -3.8253 C   0  0  0  0  0  0  0  0  0  0  0  0
    8.8370    5.2189   -3.0776 C   0  0  0  0  0  0  0  0  0  0  0  0
    9.4023    4.6504   -1.9189 C   0  0  0  0  0  0  0  0  0  0  0  0
   10.7186    4.9462   -1.5287 C   0  0  0  0  0  0  0  0  0  0  0  0
   11.4884    5.8732   -2.2224 C   0  0  0  0  0  0  0  0  0  0  0  0
   10.9729    6.4227   -3.3944 C   0  0  0  0  0  0  0  0  0  0  0  0
   12.7242    6.3077   -1.8170 O   0  0  0  0  0  0  0  0  0  0  0  0
   13.0436    6.0833   -0.4310 C   0  0  2  0  0  0  0  0  0  0  0  0
   12.6787    4.7023    0.0535 C   0  0  0  0  0  0  0  0  0  0  0  0
   13.3832    4.0090    0.7732 O   0  0  0  0  0  0  0  0  0  0  0  0
   11.3046    4.2503   -0.3772 C   0  0  0  0  0  0  0  0  0  0  0  0
   10.7294    3.3366    0.1916 O   0  0  0  0  0  0  0  0  0  0  0  0
   12.4335    7.1289    0.4549 C   0  0  1  0  0  0  0  0  0  0  0  0
   10.9890    7.2389    0.4373 O   0  0  0  0  0  0  0  0  0  0  0  0
   13.0288    7.2099    1.7551 O   0  0  0  0  0  0  0  0  0  0  0  0
   13.1501    8.2981    0.9660 C   0  0  0  0  0  0  0  0  0  0  0  0
   12.7672    9.4264    1.1478 O   0  0  0  0  0  0  0  0  0  0  0  0
    5.5467    5.5752   -1.4402 O   0  0  0  0  0  0  0  0  0  0  0  0
    4.2463    6.0559   -1.0259 C   0  0  1  0  0  0  0  0  0  0  0  0
    3.9377    5.6455    0.3094 O   0  0  0  0  0  0  0  0  0  0  0  0
    2.8165    6.2558    0.8473 C   0  0  0  0  0  0  0  0  0  0  0  0
    1.8811    5.5789    1.5038 C   0  0  0  0  0  0  0  0  0  0  0  0
    0.7357    5.6861    2.1395 O   0  0  0  0  0  0  0  0  0  0  0  0
    1.5187    4.3774    1.8872 O   0  0  0  0  0  0  0  0  0  0  0  0
    2.6364    7.7221    0.7400 C   0  0  0  0  0  0  0  0  0  0  0  0
    1.7693    8.3648    1.3049 O   0  0  0  0  0  0  0  0  0  0  0  0
    3.6235    8.3776   -0.1931 C   0  0  0  0  0  0  0  0  0  0  0  0
    3.8678    9.5697   -0.0930 O   0  0  0  0  0  0  0  0  0  0  0  0
    4.2888    7.5573   -1.2647 C   0  0  0  0  0  0  0  0  0  0  0  0
    4.7312    8.0966   -2.2699 O   0  0  0  0  0  0  0  0  0  0  0  0
  1  2  2  0  0  0  0
  2  3  1  0  0  0  0
  2  7  1  0  0  0  0
  3  4  1  0  0  0  0
  4  5  1  0  0  0  0
  5  6  2  0  0  0  0
  5 15  1  0  0  0  0
  6  7  1  0  0  0  0
  6  8  1  0  0  0  0
  8  9  1  0  0  0  0
  8 13  2  0  0  0  0
  9 10  1  0  0  0  0
 10 11  2  0  0  0  0
 10 38  1  0  0  0  0
 11 12  1  0  0  0  0
 11 17  1  0  0  0  0
 12 13  1  0  0  0  0
 13 14  1  0  0  0  0
 14 15  2  0  0  0  0
 15 16  1  0  0  0  0
 17 18  2  0  0  0  0
 17 22  1  0  0  0  0
 18 19  1  0  0  0  0
 19 20  2  0  0  0  0
 20 21  1  0  0  0  0
 21 22  2  0  0  0  0
 21 26  1  0  0  0  0
 22 23  1  0  0  0  0
 23 24  2  0  0  0  0
 24 25  1  0  0  0  0
 24 31  1  0  0  0  0
 25 26  2  0  0  0  0
 25 27  1  0  0  0  0
 28 27  1  6  0  0  0
 28 29  1  0  0  0  0
 28 33  1  0  0  0  0
 29 30  2  0  0  0  0
 29 31  1  0  0  0  0
 31 32  2  0  0  0  0
 33 34  1  6  0  0  0
 33 35  1  0  0  0  0
 33 36  1  0  0  0  0
 35 36  1  0  0  0  0
 36 37  2  0  0  0  0
 39 38  1  1  0  0  0
 39 40  1  0  0  0  0
 39 49  1  0  0  0  0
 40 41  1  0  0  0  0
 41 42  2  0  0  0  0
 41 45  1  0  0  0  0
 42 43  1  0  0  0  0
 42 44  1  0  0  0  0
 43 44  1  0  0  0  0
 45 46  2  0  0  0  0
 45 47  1  0  0  0  0
 47 48  2  0  0  0  0
 47 49  1  0  0  0  0
 49 50  2  0  0  0  0
M  END
$$$$