
 OpenBabel10242017183D

 52 59  0  0  1  0  0  0  0  0999 V2000
    6.9254   -6.8773    3.0819 O   0  0  0  0  0  0  0  0  0  0  0  0
    6.8690   -5.7990    3.9284 C   0  0  0  0  0  0  0  0  0  0  0  0
    6.0180   -4.7851    3.7390 C   0  0  0  0  0  0  0  0  0  0  0  0
    5.1689   -4.7617    2.6480 O   0  0  0  0  0  0  0  0  0  0  0  0
    3.8525   -4.3128    2.9809 C   0  0  2  0  0  0  0  0  0  0  0  0
    2.9617   -4.4970    1.8753 O   0  0  0  0  0  0  0  0  0  0  0  0
    2.7929   -5.7981    1.4042 C   0  0  0  0  0  0  0  0  0  0  0  0
    2.5171   -6.0707    0.1001 C   0  0  0  0  0  0  0  0  0  0  0  0
    2.3425   -7.3906   -0.3527 O   0  0  0  0  0  0  0  0  0  0  0  0
    2.4406   -8.4571    0.5379 C   0  0  0  0  0  0  0  0  0  0  0  0
    2.6360   -8.2530    1.8474 C   0  0  0  0  0  0  0  0  0  0  0  0
    2.8400   -6.9059    2.4283 C   0  0  0  0  0  0  0  0  0  0  0  0
    2.7107   -9.4244    2.7625 C   0  0  0  0  0  0  0  0  0  0  0  0
    2.8501   -9.2525    4.0358 N   0  0  0  0  0  0  0  0  0  0  0  0
    2.9368  -10.3541    4.8617 C   0  0  0  0  0  0  0  0  0  0  0  0
    3.0578  -10.1623    6.0647 O   0  0  0  0  0  0  0  0  0  0  0  0
    2.9073  -11.6538    4.3979 N   0  0  0  0  0  0  0  0  0  0  0  0
    2.7688  -11.8570    3.1334 C   0  0  0  0  0  0  0  0  0  0  0  0
    2.6389  -10.7698    2.1564 C   0  0  0  0  0  0  0  0  0  0  0  0
    2.4804  -10.8852    0.8221 C   0  0  0  0  0  0  0  0  0  0  0  0
    2.3458   -9.7339    0.0329 N   0  0  0  0  0  0  0  0  0  0  0  0
    2.4580  -12.2464    0.1582 C   0  0  0  0  0  0  0  0  0  0  0  0
    2.3015  -12.1517   -1.1848 F   0  0  0  0  0  0  0  0  0  0  0  0
    3.6110  -12.9244    0.3819 F   0  0  0  0  0  0  0  0  0  0  0  0
    1.4463  -13.0156    0.6291 F   0  0  0  0  0  0  0  0  0  0  0  0
    2.2726   -5.0100   -0.9399 C   0  0  0  0  0  0  0  0  0  0  0  0
    1.7388   -3.8751   -0.4326 N   0  0  0  0  0  0  0  0  0  0  0  0
    1.4450   -2.8878   -1.2778 C   0  0  0  0  0  0  0  0  0  0  0  0
    1.5949   -2.9290   -2.6028 N   0  0  0  0  0  0  0  0  0  0  0  0
    2.1017   -4.0469   -3.1191 C   0  0  0  0  0  0  0  0  0  0  0  0
    2.4894   -5.1521   -2.3351 C   0  0  0  0  0  0  0  0  0  0  0  0
    3.0469   -6.2681   -3.0142 C   0  0  0  0  0  0  0  0  0  0  0  0
    3.1662   -6.2917   -4.4142 C   0  0  0  0  0  0  0  0  0  0  0  0
    2.7704   -5.2060   -5.1685 C   0  0  0  0  0  0  0  0  0  0  0  0
    2.2434   -4.0958   -4.5058 C   0  0  0  0  0  0  0  0  0  0  0  0
    2.8247   -5.1281   -6.5265 O   0  0  0  0  0  0  0  0  0  0  0  0
    3.5533   -6.1274   -7.2414 C   0  0  2  0  0  0  0  0  0  0  0  0
    3.8165   -7.4604   -6.5790 C   0  0  0  0  0  0  0  0  0  0  0  0
    4.1723   -8.4648   -7.1822 O   0  0  0  0  0  0  0  0  0  0  0  0
    3.6733   -7.4921   -5.0785 C   0  0  0  0  0  0  0  0  0  0  0  0
    3.9511   -8.4965   -4.4411 O   0  0  0  0  0  0  0  0  0  0  0  0
    4.8458   -5.5390   -7.7222 C   0  0  1  0  0  0  0  0  0  0  0  0
    5.6927   -5.0132   -6.7502 F   0  0  0  0  0  0  0  0  0  0  0  0
    5.5098   -6.2530   -8.7826 O   0  0  0  0  0  0  0  0  0  0  0  0
    4.9818   -5.0607   -9.0857 C   0  0  0  0  0  0  0  0  0  0  0  0
    4.1731   -4.7425   -9.9331 O   0  0  0  0  0  0  0  0  0  0  0  0
    3.8922   -2.8473    3.4063 C   0  0  0  0  0  0  0  0  0  0  0  0
    3.0225   -2.0111    3.2092 O   0  0  0  0  0  0  0  0  0  0  0  0
    5.1142   -2.5142    4.2372 C   0  0  0  0  0  0  0  0  0  0  0  0
    5.3936   -1.3588    4.5143 O   0  0  0  0  0  0  0  0  0  0  0  0
    6.0124   -3.6461    4.6940 C   0  0  0  0  0  0  0  0  0  0  0  0
    6.6184   -3.6169    5.7498 O   0  0  0  0  0  0  0  0  0  0  0  0
  1  2  1  0  0  0  0
  2  3  2  0  0  0  0
  3  4  1  0  0  0  0
  3 51  1  0  0  0  0
  4  5  1  0  0  0  0
  5  6  1  6  0  0  0
  5 47  1  0  0  0  0
  6  7  1  0  0  0  0
  7  8  2  0  0  0  0
  7 12  1  0  0  0  0
  8  9  1  0  0  0  0
  8 26  1  0  0  0  0
  9 10  1  0  0  0  0
 10 11  2  0  0  0  0
 10 21  1  0  0  0  0
 11 12  1  0  0  0  0
 11 13  1  0  0  0  0
 13 14  2  0  0  0  0
 13 19  1  0  0  0  0
 14 15  1  0  0  0  0
 15 16  2  0  0  0  0
 15 17  1  0  0  0  0
 17 18  2  0  0  0  0
 18 19  1  0  0  0  0
 19 20  2  0  0  0  0
 20 21  1  0  0  0  0
 20 22  1  0  0  0  0
 22 23  1  0  0  0  0
 22 24  1  0  0  0  0
 22 25  1  0  0  0  0
 26 27  2  0  0  0  0
 26 31  1  0  0  0  0
 27 28  1  0  0  0  0
 28 29  2  0  0  0  0
 29 30  1  0  0  0  0
 30 31  2  0  0  0  0
 30 35  1  0  0  0  0
 31 32  1  0  0  0  0
 32 33  2  0  0  0  0
 33 34  1  0  0  0  0
 33 40  1  0  0  0  0
 34 35  2  0  0  0  0
 34 36  1  0  0  0  0
 37 36  1  1  0  0  0
 37 38  1  0  0  0  0
 37 42  1  0  0  0  0
 38 39  2  0  0  0  0
 38 40  1  0  0  0  0
 40 41  2  0  0  0  0
 42 43  1  1  0  0  0
 42 44  1  0  0  0  0
 42 45  1  0  0  0  0
 44 45  1  0  0  0  0
 45 46  2  0  0  0  0
 47 48  2  0  0  0  0
 47 49  1  0  0  0  0
 49 50  2  0  0  0  0
 49 51  1  0  0  0  0
 51 52  2  0  0  0  0
M  END
$$$$