
 OpenBabel11242001293D

 53 62  0  0  1  0  0  0  0  0999 V2000
    1.0229  -19.1449  -10.2345 O   0  0  0  0  0  0  0  0  0  0  0  0
   -0.3072  -19.1049   -9.9100 C   0  0  0  0  0  0  0  0  0  0  0  0
   -0.8958  -18.0182   -9.3957 C   0  0  0  0  0  0  0  0  0  0  0  0
   -0.1726  -16.8698   -9.1190 O   0  0  0  0  0  0  0  0  0  0  0  0
   -0.9074  -15.6668   -9.2713 C   0  0  2  0  0  0  0  0  0  0  0  0
   -0.1125  -14.5366   -8.8457 O   0  0  0  0  0  0  0  0  0  0  0  0
    0.6102  -13.8163   -9.7827 C   0  0  0  0  0  0  0  0  0  0  0  0
    1.0218  -12.5496   -9.5224 C   0  0  0  0  0  0  0  0  0  0  0  0
    1.7595  -11.8195  -10.4446 O   0  0  0  0  0  0  0  0  0  0  0  0
    2.3219  -12.4537  -11.5349 C   0  0  0  0  0  0  0  0  0  0  0  0
    1.9830  -13.7051  -11.8754 C   0  0  0  0  0  0  0  0  0  0  0  0
    1.0052  -14.5015  -11.0770 C   0  0  0  0  0  0  0  0  0  0  0  0
    2.6317  -14.3171  -13.0415 C   0  0  0  0  0  0  0  0  0  0  0  0
    2.2841  -15.5910  -13.3181 N   0  0  0  0  0  0  0  0  0  0  0  0
    2.9074  -16.1272  -14.3669 C   0  0  0  0  0  0  0  0  0  0  0  0
    2.5439  -17.4028  -14.6543 O   0  0  0  0  0  0  0  0  0  0  0  0
    3.8152  -15.5485  -15.1506 N   0  0  0  0  0  0  0  0  0  0  0  0
    4.1221  -14.2763  -14.8415 C   0  0  0  0  0  0  0  0  0  0  0  0
    3.5445  -13.5894  -13.7928 C   0  0  0  0  0  0  0  0  0  0  0  0
    3.8462  -12.1457  -13.4958 C   0  0  3  0  0  0  0  0  0  0  0  0
    3.2591  -11.7402  -12.2235 N   0  0  0  0  0  0  0  0  0  0  0  0
    3.2913  -11.2675  -14.5806 C   0  0  0  0  0  0  0  0  0  0  0  0
    3.6281   -9.8810  -14.4644 O   0  0  0  0  0  0  0  0  0  0  0  0
    4.2495  -10.7072  -15.4766 O   0  0  0  0  0  0  0  0  0  0  0  0
    0.7230  -11.7802   -8.2781 C   0  0  0  0  0  0  0  0  0  0  0  0
   -0.5286  -11.9509   -7.6959 C   0  0  0  0  0  0  0  0  0  0  0  0
   -0.8748  -11.3075   -6.5830 N   0  3  0  0  0  0  0  0  0  0  0  0
   -2.0758  -11.5633   -6.0303 F   0  0  0  0  0  0  0  0  0  0  0  0
   -0.0923  -10.4175   -6.0099 N   0  0  0  0  0  0  0  0  0  0  0  0
    1.1056  -10.1527   -6.5370 C   0  0  0  0  0  0  0  0  0  0  0  0
    1.5960  -10.8238   -7.6772 C   0  0  0  0  0  0  0  0  0  0  0  0
    2.9063  -10.4717   -8.1260 C   0  0  0  0  0  0  0  0  0  0  0  0
    3.6627   -9.4651   -7.5020 C   0  0  0  0  0  0  0  0  0  0  0  0
    3.1630   -8.8282   -6.3798 C   0  0  0  0  0  0  0  0  0  0  0  0
    1.8914   -9.1726   -5.9264 C   0  0  0  0  0  0  0  0  0  0  0  0
    1.3973   -8.5305   -4.8552 F   0  0  0  0  0  0  0  0  0  0  0  0
    3.8584   -7.8694   -5.6845 O   0  0  0  0  0  0  0  0  0  0  0  0
    5.2905   -7.9131   -5.9037 C   0  0  1  0  0  0  0  0  0  0  0  0
    5.7067   -7.9425   -7.3141 C   0  0  0  0  0  0  0  0  0  0  0  0
    6.5194   -7.2003   -7.8304 O   0  0  0  0  0  0  0  0  0  0  0  0
    4.9764   -9.0562   -8.0408 C   0  0  0  0  0  0  0  0  0  0  0  0
    5.4568   -9.6061   -9.0191 O   0  0  0  0  0  0  0  0  0  0  0  0
    6.0920   -7.2012   -4.9986 O   0  0  0  0  0  0  0  0  0  0  0  0
    6.1706   -8.6571   -4.9458 C   0  0  1  0  0  0  0  0  0  0  0  0
    5.2656   -9.3783   -4.0297 O   0  0  0  0  0  0  0  0  0  0  0  0
    6.4424   -9.0031   -3.5721 C   0  0  0  0  0  0  0  0  0  0  0  0
    7.3235   -9.6434   -3.0446 O   0  0  0  0  0  0  0  0  0  0  0  0
   -2.1372  -15.6111   -8.3788 C   0  0  0  0  0  0  0  0  0  0  0  0
   -2.5678  -14.5925   -7.8402 O   0  0  0  0  0  0  0  0  0  0  0  0
   -2.8390  -16.9367   -8.2483 C   0  0  0  0  0  0  0  0  0  0  0  0
   -3.7694  -17.0629   -7.4667 O   0  0  0  0  0  0  0  0  0  0  0  0
   -2.3486  -18.1031   -9.0763 C   0  0  0  0  0  0  0  0  0  0  0  0
   -3.1012  -18.9750   -9.4749 O   0  0  0  0  0  0  0  0  0  0  0  0
  1  2  1  0  0  0  0
  2  3  2  0  0  0  0
  3  4  1  0  0  0  0
  3 52  1  0  0  0  0
  4  5  1  0  0  0  0
  5  6  1  1  0  0  0
  5 48  1  0  0  0  0
  6  7  1  0  0  0  0
  7  8  2  0  0  0  0
  7 12  1  0  0  0  0
  8  9  1  0  0  0  0
  8 25  1  0  0  0  0
  9 10  1  0  0  0  0
 10 11  2  0  0  0  0
 10 21  1  0  0  0  0
 11 12  1  0  0  0  0
 11 13  1  0  0  0  0
 13 14  2  0  0  0  0
 13 19  1  0  0  0  0
 14 15  1  0  0  0  0
 15 16  1  0  0  0  0
 15 17  2  0  0  0  0
 17 18  1  0  0  0  0
 18 19  2  0  0  0  0
 19 20  1  0  0  0  0
 20 21  1  0  0  0  0
 20 22  1  0  0  0  0
 22 23  1  0  0  0  0
 22 24  1  0  0  0  0
 23 24  1  0  0  0  0
 25 26  2  0  0  0  0
 25 31  1  0  0  0  0
 26 27  1  0  0  0  0
 27 28  1  0  0  0  0
 27 29  2  0  0  0  0
 29 30  1  0  0  0  0
 30 31  2  0  0  0  0
 30 35  1  0  0  0  0
 31 32  1  0  0  0  0
 32 33  2  0  0  0  0
 33 34  1  0  0  0  0
 33 41  1  0  0  0  0
 34 35  2  0  0  0  0
 34 37  1  0  0  0  0
 35 36  1  0  0  0  0
 38 37  1  1  0  0  0
 38 39  1  0  0  0  0
 38 43  1  0  0  0  0
 38 44  1  0  0  0  0
 39 40  2  0  0  0  0
 39 41  1  0  0  0  0
 41 42  2  0  0  0  0
 44 43  1  1  0  0  0
 44 45  1  0  0  0  0
 44 46  1  0  0  0  0
 45 46  1  0  0  0  0
 46 47  2  0  0  0  0
 48 49  2  0  0  0  0
 48 50  1  0  0  0  0
 50 51  2  0  0  0  0
 50 52  1  0  0  0  0
 52 53  2  0  0  0  0
M  CHG  1  27   1
M  END
$$$$