
 OpenBabel11252014463D

 54 63  0  0  1  0  0  0  0  0999 V2000
   16.4853    2.4572   -1.3983 O   0  0  0  0  0  0  0  0  0  0  0  0
   16.5655    1.1027   -1.1891 C   0  0  0  0  0  0  0  0  0  0  0  0
   16.0036    0.2092   -2.0125 C   0  0  0  0  0  0  0  0  0  0  0  0
   15.2810    0.6418   -3.1102 O   0  0  0  0  0  0  0  0  0  0  0  0
   15.1111   -0.3237   -4.1462 C   0  0  2  0  0  0  0  0  0  0  0  0
   14.1959    0.1815   -5.1486 O   0  0  0  0  0  0  0  0  0  0  0  0
   14.5926    1.3382   -5.8058 C   0  0  0  0  0  0  0  0  0  0  0  0
   13.6823    2.2508   -6.1963 C   0  0  0  0  0  0  0  0  0  0  0  0
   14.0068    3.3848   -6.9403 O   0  0  0  0  0  0  0  0  0  0  0  0
   15.3339    3.5927   -7.3313 C   0  0  0  0  0  0  0  0  0  0  0  0
   16.3132    2.7413   -6.9684 C   0  0  0  0  0  0  0  0  0  0  0  0
   16.0509    1.5222   -6.1323 C   0  0  0  0  0  0  0  0  0  0  0  0
   17.7508    2.9756   -7.3455 C   0  0  3  0  0  0  0  0  0  0  0  0
   18.2259    1.8333   -8.0363 O   0  0  0  0  0  0  0  0  0  0  0  0
   19.5567    1.8697   -8.3336 C   0  0  0  0  0  0  0  0  0  0  0  0
   20.2019    0.8578   -8.5409 O   0  0  0  0  0  0  0  0  0  0  0  0
   20.0938    3.1168   -8.3274 O   0  0  0  0  0  0  0  0  0  0  0  0
   19.2835    4.1667   -8.8345 C   0  0  3  0  0  0  0  0  0  0  0  0
   17.8950    4.1052   -8.2921 C   0  0  0  0  0  0  0  0  0  0  0  0
   16.8670    4.9132   -8.6333 C   0  0  0  0  0  0  0  0  0  0  0  0
   15.6044    4.7043   -8.0998 O   0  3  0  0  0  0  0  0  0  0  0  0
   16.9816    6.0185   -9.6142 C   0  0  0  0  0  0  0  0  0  0  0  0
   16.6975    5.7912  -11.0007 O   0  0  0  0  0  0  0  0  0  0  0  0
   15.7995    6.5875  -10.2049 O   0  0  0  0  0  0  0  0  0  0  0  0
   19.8044    5.4007   -8.3845 O   0  0  0  0  0  0  0  0  0  0  0  0
   12.2594    2.1353   -5.8176 C   0  0  0  0  0  0  0  0  0  0  0  0
   11.3956    1.4136   -6.6340 C   0  0  0  0  0  0  0  0  0  0  0  0
   10.1048    1.2805   -6.3085 N   0  3  0  0  0  0  0  0  0  0  0  0
    9.2895    0.5876   -7.1270 F   0  0  0  0  0  0  0  0  0  0  0  0
    9.5868    1.8189   -5.2195 N   0  0  0  0  0  0  0  0  0  0  0  0
   10.3722    2.4909   -4.3704 C   0  0  0  0  0  0  0  0  0  0  0  0
   11.7440    2.6776   -4.6213 C   0  0  0  0  0  0  0  0  0  0  0  0
   12.5218    3.3717   -3.6624 C   0  0  0  0  0  0  0  0  0  0  0  0
   11.9454    3.8563   -2.4814 C   0  0  0  0  0  0  0  0  0  0  0  0
   10.5928    3.6957   -2.2427 C   0  0  0  0  0  0  0  0  0  0  0  0
    9.8280    3.0214   -3.1970 C   0  0  0  0  0  0  0  0  0  0  0  0
    8.5119    2.8701   -2.9792 F   0  0  0  0  0  0  0  0  0  0  0  0
    9.9538    4.1423   -1.1168 O   0  0  0  0  0  0  0  0  0  0  0  0
   10.7366    4.9020   -0.1587 C   0  0  1  0  0  0  0  0  0  0  0  0
   12.1767    4.6204   -0.0958 C   0  0  0  0  0  0  0  0  0  0  0  0
   12.8106    4.4202    0.9237 O   0  0  0  0  0  0  0  0  0  0  0  0
   12.7785    4.5153   -1.4724 C   0  0  0  0  0  0  0  0  0  0  0  0
   13.8876    4.9429   -1.7417 O   0  0  0  0  0  0  0  0  0  0  0  0
   10.3806    6.2492    0.0149 O   0  0  0  0  0  0  0  0  0  0  0  0
   10.0819    5.3296    1.1183 C   0  0  1  0  0  0  0  0  0  0  0  0
    8.7340    4.7049    1.1408 O   0  0  0  0  0  0  0  0  0  0  0  0
    8.9125    5.8381    1.7706 C   0  0  0  0  0  0  0  0  0  0  0  0
    8.6737    6.1999    2.9044 O   0  0  0  0  0  0  0  0  0  0  0  0
   14.5636   -1.6478   -3.6002 C   0  0  3  0  0  0  0  0  0  0  0  0
   15.6072   -2.2593   -2.6719 C   0  0  3  0  0  0  0  0  0  0  0  0
   16.1463   -1.2443   -1.6722 C   0  0  0  0  0  0  0  0  0  0  0  0
   16.7174   -1.6240   -0.6503 O   0  0  0  0  0  0  0  0  0  0  0  0
   15.0334   -3.3907   -2.0246 O   0  0  0  0  0  0  0  0  0  0  0  0
   13.3132   -1.4644   -2.9109 O   0  0  0  0  0  0  0  0  0  0  0  0
  1  2  1  0  0  0  0
  2  3  2  0  0  0  0
  3  4  1  0  0  0  0
  3 51  1  0  0  0  0
  4  5  1  0  0  0  0
  5  6  1  6  0  0  0
  5 49  1  0  0  0  0
  6  7  1  0  0  0  0
  7  8  2  0  0  0  0
  7 12  1  0  0  0  0
  8  9  1  0  0  0  0
  8 26  1  0  0  0  0
  9 10  1  0  0  0  0
 10 11  2  0  0  0  0
 10 21  1  0  0  0  0
 11 12  1  0  0  0  0
 11 13  1  0  0  0  0
 13 14  1  0  0  0  0
 13 19  1  0  0  0  0
 14 15  1  0  0  0  0
 15 16  2  0  0  0  0
 15 17  1  0  0  0  0
 17 18  1  0  0  0  0
 18 19  1  0  0  0  0
 18 25  1  0  0  0  0
 19 20  2  0  0  0  0
 20 21  1  0  0  0  0
 20 22  1  0  0  0  0
 22 23  1  0  0  0  0
 22 24  1  0  0  0  0
 23 24  1  0  0  0  0
 26 27  2  0  0  0  0
 26 32  1  0  0  0  0
 27 28  1  0  0  0  0
 28 29  1  0  0  0  0
 28 30  2  0  0  0  0
 30 31  1  0  0  0  0
 31 32  2  0  0  0  0
 31 36  1  0  0  0  0
 32 33  1  0  0  0  0
 33 34  2  0  0  0  0
 34 35  1  0  0  0  0
 34 42  1  0  0  0  0
 35 36  2  0  0  0  0
 35 38  1  0  0  0  0
 36 37  1  0  0  0  0
 39 38  1  6  0  0  0
 39 40  1  0  0  0  0
 39 44  1  0  0  0  0
 39 45  1  0  0  0  0
 40 41  2  0  0  0  0
 40 42  1  0  0  0  0
 42 43  2  0  0  0  0
 45 44  1  6  0  0  0
 45 46  1  0  0  0  0
 45 47  1  0  0  0  0
 46 47  1  0  0  0  0
 47 48  2  0  0  0  0
 49 50  1  0  0  0  0
 49 54  1  0  0  0  0
 50 51  1  0  0  0  0
 50 53  1  0  0  0  0
 51 52  2  0  0  0  0
M  CHG  2  21   1  28   1
M  END
$$$$