
 OpenBabel11262000023D

 54 62  0  0  1  0  0  0  0  0999 V2000
    4.5738    0.8662   -2.4022 O   0  0  0  0  0  0  0  0  0  0  0  0
    3.2414    1.1888   -2.4276 C   0  0  0  0  0  0  0  0  0  0  0  0
    2.2976    0.3164   -2.7971 C   0  0  0  0  0  0  0  0  0  0  0  0
    2.6349   -0.9541   -3.2112 O   0  0  0  0  0  0  0  0  0  0  0  0
    1.7804   -1.9440   -2.6793 C   0  0  2  0  0  0  0  0  0  0  0  0
    2.1636   -3.2780   -3.1175 O   0  0  0  0  0  0  0  0  0  0  0  0
    2.1523   -3.5843   -4.4752 C   0  0  0  0  0  0  0  0  0  0  0  0
    2.0513   -4.8674   -4.8836 C   0  0  0  0  0  0  0  0  0  0  0  0
    2.0704   -5.2442   -6.2319 O   0  0  0  0  0  0  0  0  0  0  0  0
    2.3339   -4.2761   -7.2125 C   0  0  0  0  0  0  0  0  0  0  0  0
    2.4753   -2.9766   -6.8863 C   0  0  0  0  0  0  0  0  0  0  0  0
    2.3227   -2.4803   -5.4842 C   0  0  0  0  0  0  0  0  0  0  0  0
    2.8179   -1.9154   -7.9018 C   0  0  3  0  0  0  0  0  0  0  0  0
    4.0385   -1.3210   -7.4983 O   0  0  0  0  0  0  0  0  0  0  0  0
    4.6266   -0.4780   -8.3711 C   0  0  0  0  0  0  0  0  0  0  0  0
    5.5514    0.2998   -7.9578 N   0  0  0  0  0  0  0  0  0  0  0  0
    4.2321   -0.4819   -9.6612 O   0  0  0  0  0  0  0  0  0  0  0  0
    3.5210   -1.5017  -10.1747 C   0  0  0  0  0  0  0  0  0  0  0  0
    3.2307   -1.6011  -11.3576 O   0  0  0  0  0  0  0  0  0  0  0  0
    3.0419   -2.5046   -9.2261 C   0  0  0  0  0  0  0  0  0  0  0  0
    2.8566   -3.8090   -9.5189 C   0  0  0  0  0  0  0  0  0  0  0  0
    2.4535   -4.6931   -8.5232 O   0  3  0  0  0  0  0  0  0  0  0  0
    3.1416   -4.4306  -10.8334 C   0  0  0  0  0  0  0  0  0  0  0  0
    4.4311   -4.9952  -11.1002 O   0  0  0  0  0  0  0  0  0  0  0  0
    3.2939   -5.8605  -10.9254 O   0  0  0  0  0  0  0  0  0  0  0  0
    1.9832   -5.9807   -3.8973 C   0  0  0  0  0  0  0  0  0  0  0  0
    3.1741   -6.5389   -3.6337 N   0  0  0  0  0  0  0  0  0  0  0  0
    3.1878   -7.3999   -2.6222 C   0  0  0  0  0  0  0  0  0  0  0  0
    4.3507   -7.9891   -2.3297 F   0  0  0  0  0  0  0  0  0  0  0  0
    2.1304   -7.7283   -1.8897 N   0  0  0  0  0  0  0  0  0  0  0  0
    0.9558   -7.1725   -2.2174 C   0  0  0  0  0  0  0  0  0  0  0  0
    0.8203   -6.3024   -3.2751 N   0  3  0  0  0  0  0  0  0  0  0  0
   -0.3989   -5.8361   -3.6370 C   0  0  0  0  0  0  0  0  0  0  0  0
   -1.5374   -6.1545   -2.9068 C   0  0  0  0  0  0  0  0  0  0  0  0
   -2.8225   -5.6316   -3.3315 C   0  0  0  0  0  0  0  0  0  0  0  0
   -2.9078   -5.1296   -4.4402 O   0  0  0  0  0  0  0  0  0  0  0  0
   -3.9841   -5.7575   -2.3734 C   0  0  0  0  0  0  0  0  0  0  0  0
   -5.0850   -5.3546   -2.7121 O   0  0  0  0  0  0  0  0  0  0  0  0
   -3.6372   -6.3354   -1.0106 C   0  0  1  0  0  0  0  0  0  0  0  0
   -2.5180   -7.2516   -1.0007 O   0  0  0  0  0  0  0  0  0  0  0  0
   -1.4515   -6.9546   -1.7963 C   0  0  0  0  0  0  0  0  0  0  0  0
   -0.2017   -7.4777   -1.4757 C   0  0  0  0  0  0  0  0  0  0  0  0
   -0.0965   -8.2812   -0.4061 F   0  0  0  0  0  0  0  0  0  0  0  0
   -3.5049   -5.2455    0.0289 C   0  0  1  0  0  0  0  0  0  0  0  0
   -4.6681   -4.4420    0.2770 O   0  0  0  0  0  0  0  0  0  0  0  0
   -2.7092   -5.5508    1.1813 O   0  0  0  0  0  0  0  0  0  0  0  0
   -2.2260   -4.6145    0.3417 C   0  0  0  0  0  0  0  0  0  0  0  0
   -1.1963   -4.5627   -0.2920 O   0  0  0  0  0  0  0  0  0  0  0  0
    0.2882   -1.7280   -2.9599 C   0  0  0  0  0  0  0  0  0  0  0  0
   -0.4798   -2.6926   -3.0839 O   0  0  0  0  0  0  0  0  0  0  0  0
   -0.1477   -0.3006   -3.2025 C   0  0  3  0  0  0  0  0  0  0  0  0
    0.8653    0.7408   -2.7889 C   0  0  0  0  0  0  0  0  0  0  0  0
    0.5427    1.8929   -2.5140 O   0  0  0  0  0  0  0  0  0  0  0  0
   -0.4773   -0.1545   -4.5234 F   0  0  0  0  0  0  0  0  0  0  0  0
  1  2  1  0  0  0  0
  2  3  2  0  0  0  0
  3  4  1  0  0  0  0
  3 52  1  0  0  0  0
  4  5  1  0  0  0  0
  5  6  1  6  0  0  0
  5 49  1  0  0  0  0
  6  7  1  0  0  0  0
  7  8  2  0  0  0  0
  7 12  1  0  0  0  0
  8  9  1  0  0  0  0
  8 26  1  0  0  0  0
  9 10  1  0  0  0  0
 10 11  2  0  0  0  0
 10 22  1  0  0  0  0
 11 12  1  0  0  0  0
 11 13  1  0  0  0  0
 13 14  1  0  0  0  0
 13 20  1  0  0  0  0
 14 15  1  0  0  0  0
 15 16  2  0  0  0  0
 15 17  1  0  0  0  0
 17 18  1  0  0  0  0
 18 19  2  0  0  0  0
 18 20  1  0  0  0  0
 20 21  2  0  0  0  0
 21 22  1  0  0  0  0
 21 23  1  0  0  0  0
 23 24  1  0  0  0  0
 23 25  1  0  0  0  0
 24 25  1  0  0  0  0
 26 27  2  0  0  0  0
 26 32  1  0  0  0  0
 27 28  1  0  0  0  0
 28 29  1  0  0  0  0
 28 30  2  0  0  0  0
 30 31  1  0  0  0  0
 31 32  2  0  0  0  0
 31 42  1  0  0  0  0
 32 33  1  0  0  0  0
 33 34  2  0  0  0  0
 34 35  1  0  0  0  0
 34 41  1  0  0  0  0
 35 36  2  0  0  0  0
 35 37  1  0  0  0  0
 37 38  2  0  0  0  0
 39 37  1  6  0  0  0
 39 40  1  0  0  0  0
 39 44  1  0  0  0  0
 40 41  1  0  0  0  0
 41 42  2  0  0  0  0
 42 43  1  0  0  0  0
 44 45  1  1  0  0  0
 44 46  1  0  0  0  0
 44 47  1  0  0  0  0
 46 47  1  0  0  0  0
 47 48  2  0  0  0  0
 49 50  2  0  0  0  0
 49 51  1  0  0  0  0
 51 52  1  0  0  0  0
 51 54  1  0  0  0  0
 52 53  2  0  0  0  0
M  CHG  2  22   1  32   1
M  END
$$$$