
 OpenBabel11092001313D

 52 60  0  0  1  0  0  0  0  0999 V2000
    6.5943    5.7943    1.6725 O   0  0  0  0  0  0  0  0  0  0  0  0
    6.6039    4.8410    0.6891 C   0  0  0  0  0  0  0  0  0  0  0  0
    5.4848    4.2137    0.3073 C   0  0  0  0  0  0  0  0  0  0  0  0
    4.2750    4.5062    0.9120 O   0  0  0  0  0  0  0  0  0  0  0  0
    3.1606    4.5486    0.0109 C   0  0  2  0  0  0  0  0  0  0  0  0
    2.0032    5.1254    0.6325 O   0  0  0  0  0  0  0  0  0  0  0  0
    2.0691    6.5010    0.8722 C   0  0  0  0  0  0  0  0  0  0  0  0
    0.9632    7.2806    0.8846 C   0  0  0  0  0  0  0  0  0  0  0  0
    0.9886    8.6542    1.1395 O   0  0  0  0  0  0  0  0  0  0  0  0
    2.2044    9.2674    1.4249 C   0  0  0  0  0  0  0  0  0  0  0  0
    3.3398    8.5615    1.4856 C   0  0  0  0  0  0  0  0  0  0  0  0
    3.4053    7.1048    1.2202 C   0  0  0  0  0  0  0  0  0  0  0  0
    4.6060    9.2688    1.8012 C   0  0  0  0  0  0  0  0  0  0  0  0
    5.7033    8.5985    1.9285 N   0  0  0  0  0  0  0  0  0  0  0  0
    6.8757    9.2486    2.2260 C   0  0  0  0  0  0  0  0  0  0  0  0
    7.8738    8.5628    2.4161 O   0  0  0  0  0  0  0  0  0  0  0  0
    6.9823   10.6209    2.2885 N   0  0  0  0  0  0  0  0  0  0  0  0
    5.9001   11.2898    2.1529 C   0  0  0  0  0  0  0  0  0  0  0  0
    4.5664   10.7405    1.9357 C   0  0  0  0  0  0  0  0  0  0  0  0
    3.3746   11.3692    1.8320 C   0  0  0  0  0  0  0  0  0  0  0  0
    2.2124   10.6239    1.6326 N   0  0  0  0  0  0  0  0  0  0  0  0
    3.1888   12.8385    1.8992 C   0  0  0  0  0  0  0  0  0  0  0  0
    3.2518   13.6543    0.7179 O   0  0  0  0  0  0  0  0  0  0  0  0
    1.9974   13.4768    1.4023 O   0  0  0  0  0  0  0  0  0  0  0  0
    5.9885   12.6214    2.2085 O   0  0  0  0  0  0  0  0  0  0  0  0
   -0.3871    6.7268    0.6816 C   0  0  0  0  0  0  0  0  0  0  0  0
   -0.8131    6.7258   -0.5993 N   0  0  0  0  0  0  0  0  0  0  0  0
   -1.9840    6.1191   -0.8174 C   0  0  0  0  0  0  0  0  0  0  0  0
   -2.7497    5.5168    0.1036 N   0  0  0  0  0  0  0  0  0  0  0  0
   -2.3036    5.5181    1.3623 C   0  0  0  0  0  0  0  0  0  0  0  0
   -1.1110    6.1530    1.7405 C   0  0  0  0  0  0  0  0  0  0  0  0
   -0.7078    6.1368    3.0990 C   0  0  0  0  0  0  0  0  0  0  0  0
   -1.4284    5.3895    4.0270 C   0  0  0  0  0  0  0  0  0  0  0  0
   -2.5606    4.6924    3.6316 C   0  0  0  0  0  0  0  0  0  0  0  0
   -3.0238    4.8152    2.3225 C   0  0  0  0  0  0  0  0  0  0  0  0
   -3.2368    3.8339    4.4560 O   0  0  0  0  0  0  0  0  0  0  0  0
   -2.3951    3.1559    5.4046 C   0  0  2  0  0  0  0  0  0  0  0  0
   -1.4834    4.0735    6.1901 C   0  0  0  0  0  0  0  0  0  0  0  0
   -1.1176    3.8607    7.3382 O   0  0  0  0  0  0  0  0  0  0  0  0
   -0.9619    5.2627    5.4109 C   0  0  0  0  0  0  0  0  0  0  0  0
   -0.1852    6.0650    5.9032 O   0  0  0  0  0  0  0  0  0  0  0  0
   -1.6203    2.0499    4.7483 C   0  0  1  0  0  0  0  0  0  0  0  0
   -0.7001    2.4278    3.6938 O   0  0  0  0  0  0  0  0  0  0  0  0
   -1.1420    1.0460    5.6476 O   0  0  0  0  0  0  0  0  0  0  0  0
   -2.0514    0.6531    4.7362 C   0  0  0  0  0  0  0  0  0  0  0  0
   -1.9704   -0.1806    3.8648 O   0  0  0  0  0  0  0  0  0  0  0  0
    2.9592    3.1030   -0.4063 C   0  0  0  0  0  0  0  0  0  0  0  0
    1.9594    2.4215   -0.2422 O   0  0  0  0  0  0  0  0  0  0  0  0
    4.2021    2.5401   -1.0645 C   0  0  0  0  0  0  0  0  0  0  0  0
    4.1116    1.6339   -1.8775 O   0  0  0  0  0  0  0  0  0  0  0  0
    5.5523    3.1679   -0.7487 C   0  0  0  0  0  0  0  0  0  0  0  0
    6.5707    2.8566   -1.3420 O   0  0  0  0  0  0  0  0  0  0  0  0
  1  2  1  0  0  0  0
  2  3  2  0  0  0  0
  3  4  1  0  0  0  0
  3 51  1  0  0  0  0
  4  5  1  0  0  0  0
  5  6  1  1  0  0  0
  5 47  1  0  0  0  0
  6  7  1  0  0  0  0
  7  8  2  0  0  0  0
  7 12  1  0  0  0  0
  8  9  1  0  0  0  0
  8 26  1  0  0  0  0
  9 10  1  0  0  0  0
 10 11  2  0  0  0  0
 10 21  1  0  0  0  0
 11 12  1  0  0  0  0
 11 13  1  0  0  0  0
 13 14  2  0  0  0  0
 13 19  1  0  0  0  0
 14 15  1  0  0  0  0
 15 16  2  0  0  0  0
 15 17  1  0  0  0  0
 17 18  2  0  0  0  0
 18 19  1  0  0  0  0
 18 25  1  0  0  0  0
 19 20  2  0  0  0  0
 20 21  1  0  0  0  0
 20 22  1  0  0  0  0
 22 23  1  0  0  0  0
 22 24  1  0  0  0  0
 23 24  1  0  0  0  0
 26 27  2  0  0  0  0
 26 31  1  0  0  0  0
 27 28  1  0  0  0  0
 28 29  2  0  0  0  0
 29 30  1  0  0  0  0
 30 31  2  0  0  0  0
 30 35  1  0  0  0  0
 31 32  1  0  0  0  0
 32 33  2  0  0  0  0
 33 34  1  0  0  0  0
 33 40  1  0  0  0  0
 34 35  2  0  0  0  0
 34 36  1  0  0  0  0
 37 36  1  6  0  0  0
 37 38  1  0  0  0  0
 37 42  1  0  0  0  0
 38 39  2  0  0  0  0
 38 40  1  0  0  0  0
 40 41  2  0  0  0  0
 42 43  1  6  0  0  0
 42 44  1  0  0  0  0
 42 45  1  0  0  0  0
 44 45  1  0  0  0  0
 45 46  2  0  0  0  0
 47 48  2  0  0  0  0
 47 49  1  0  0  0  0
 49 50  2  0  0  0  0
 49 51  1  0  0  0  0
 51 52  2  0  0  0  0
M  END
$$$$