
 OpenBabel11252002083D

 52 61  0  0  1  0  0  0  0  0999 V2000
   -3.5222  -10.6938   -5.8086 O   0  0  0  0  0  0  0  0  0  0  0  0
   -4.7566  -10.1177   -5.9654 C   0  0  0  0  0  0  0  0  0  0  0  0
   -4.9063   -8.8150   -6.2260 C   0  0  0  0  0  0  0  0  0  0  0  0
   -3.8040   -7.9814   -6.3133 O   0  0  0  0  0  0  0  0  0  0  0  0
   -3.9035   -7.0723   -7.3991 C   0  0  2  0  0  0  0  0  0  0  0  0
   -2.7266   -6.2538   -7.5005 O   0  0  0  0  0  0  0  0  0  0  0  0
   -1.5053   -6.8676   -7.7145 C   0  0  0  0  0  0  0  0  0  0  0  0
   -0.3664   -6.2954   -7.2607 C   0  0  0  0  0  0  0  0  0  0  0  0
    0.8856   -6.8435   -7.5101 O   0  0  0  0  0  0  0  0  0  0  0  0
    0.9938   -8.0338   -8.2137 C   0  0  0  0  0  0  0  0  0  0  0  0
   -0.0780   -8.6504   -8.7369 C   0  0  0  0  0  0  0  0  0  0  0  0
   -1.4660   -8.1366   -8.5395 C   0  0  0  0  0  0  0  0  0  0  0  0
    0.1226   -9.8964   -9.4896 C   0  0  0  0  0  0  0  0  0  0  0  0
   -0.9884  -10.5469   -9.8967 N   0  0  0  0  0  0  0  0  0  0  0  0
   -0.7858  -11.6977  -10.5552 C   0  0  0  0  0  0  0  0  0  0  0  0
    0.4062  -12.2412  -10.8356 N   0  0  0  0  0  0  0  0  0  0  0  0
    1.4834  -11.5531  -10.4177 C   0  0  0  0  0  0  0  0  0  0  0  0
    1.4065  -10.3498   -9.7467 C   0  0  0  0  0  0  0  0  0  0  0  0
    2.6185   -9.5554   -9.3439 C   0  0  3  0  0  0  0  0  0  0  0  0
    2.2625   -8.5504   -8.3314 N   0  0  0  0  0  0  0  0  0  0  0  0
    3.2588   -8.9201  -10.5573 C   0  0  3  0  0  0  0  0  0  0  0  0
    4.3682   -8.0428  -10.3587 N   0  0  0  0  0  0  0  0  0  0  0  0
    3.3108   -7.5123  -10.7448 N   0  0  0  0  0  0  0  0  0  0  0  0
   -0.3364   -5.0248   -6.4796 C   0  0  0  0  0  0  0  0  0  0  0  0
   -1.1787   -3.9882   -6.8827 C   0  0  0  0  0  0  0  0  0  0  0  0
   -1.2425   -2.8438   -6.2019 N   0  3  0  0  0  0  0  0  0  0  0  0
   -2.1117   -1.8953   -6.6002 F   0  0  0  0  0  0  0  0  0  0  0  0
   -0.4910   -2.6038   -5.1467 N   0  0  0  0  0  0  0  0  0  0  0  0
    0.3713   -3.5316   -4.7228 C   0  0  0  0  0  0  0  0  0  0  0  0
    0.4989   -4.7863   -5.3539 C   0  0  0  0  0  0  0  0  0  0  0  0
    1.4439   -5.7004   -4.8078 C   0  0  0  0  0  0  0  0  0  0  0  0
    2.2294   -5.3682   -3.6924 C   0  0  0  0  0  0  0  0  0  0  0  0
    2.0936   -4.1411   -3.0839 C   0  0  0  0  0  0  0  0  0  0  0  0
    1.1703   -3.2407   -3.6130 C   0  0  0  0  0  0  0  0  0  0  0  0
    1.0433   -2.0367   -3.0312 F   0  0  0  0  0  0  0  0  0  0  0  0
    2.8792   -3.7314   -2.0444 O   0  0  0  0  0  0  0  0  0  0  0  0
    3.4556   -4.7569   -1.1937 C   0  0  1  0  0  0  0  0  0  0  0  0
    3.6506   -6.1190   -1.7323 C   0  0  0  0  0  0  0  0  0  0  0  0
    4.0064   -7.0677   -1.0516 O   0  0  0  0  0  0  0  0  0  0  0  0
    3.2303   -6.2968   -3.1688 C   0  0  0  0  0  0  0  0  0  0  0  0
    3.6686   -7.1996   -3.8614 O   0  0  0  0  0  0  0  0  0  0  0  0
    4.4805   -4.3105   -0.3385 O   0  0  0  0  0  0  0  0  0  0  0  0
    3.2127   -4.6754    0.2889 C   0  0  1  0  0  0  0  0  0  0  0  0
    2.2111   -3.6078    0.5005 O   0  0  0  0  0  0  0  0  0  0  0  0
    3.0875   -3.8403    1.4490 C   0  0  0  0  0  0  0  0  0  0  0  0
    2.9544   -4.0712    2.6357 O   0  0  0  0  0  0  0  0  0  0  0  0
   -5.0291   -6.0901   -7.1307 C   0  0  0  0  0  0  0  0  0  0  0  0
   -4.9457   -4.8735   -7.2573 O   0  0  0  0  0  0  0  0  0  0  0  0
   -6.2939   -6.7638   -6.6496 C   0  0  0  0  0  0  0  0  0  0  0  0
   -7.2965   -6.1010   -6.4415 O   0  0  0  0  0  0  0  0  0  0  0  0
   -6.2788   -8.2621   -6.4056 C   0  0  0  0  0  0  0  0  0  0  0  0
   -7.2975   -8.9288   -6.4081 O   0  0  0  0  0  0  0  0  0  0  0  0
  1  2  1  0  0  0  0
  2  3  2  0  0  0  0
  3  4  1  0  0  0  0
  3 51  1  0  0  0  0
  4  5  1  0  0  0  0
  5  6  1  1  0  0  0
  5 47  1  0  0  0  0
  6  7  1  0  0  0  0
  7  8  2  0  0  0  0
  7 12  1  0  0  0  0
  8  9  1  0  0  0  0
  8 24  1  0  0  0  0
  9 10  1  0  0  0  0
 10 11  2  0  0  0  0
 10 20  1  0  0  0  0
 11 12  1  0  0  0  0
 11 13  1  0  0  0  0
 13 14  2  0  0  0  0
 13 18  1  0  0  0  0
 14 15  1  0  0  0  0
 15 16  2  0  0  0  0
 16 17  1  0  0  0  0
 17 18  2  0  0  0  0
 18 19  1  0  0  0  0
 19 20  1  0  0  0  0
 19 21  1  0  0  0  0
 21 22  1  0  0  0  0
 21 23  1  0  0  0  0
 22 23  2  0  0  0  0
 24 25  2  0  0  0  0
 24 30  1  0  0  0  0
 25 26  1  0  0  0  0
 26 27  1  0  0  0  0
 26 28  2  0  0  0  0
 28 29  1  0  0  0  0
 29 30  2  0  0  0  0
 29 34  1  0  0  0  0
 30 31  1  0  0  0  0
 31 32  2  0  0  0  0
 32 33  1  0  0  0  0
 32 40  1  0  0  0  0
 33 34  2  0  0  0  0
 33 36  1  0  0  0  0
 34 35  1  0  0  0  0
 37 36  1  6  0  0  0
 37 38  1  0  0  0  0
 37 42  1  0  0  0  0
 37 43  1  0  0  0  0
 38 39  2  0  0  0  0
 38 40  1  0  0  0  0
 40 41  2  0  0  0  0
 43 42  1  6  0  0  0
 43 44  1  0  0  0  0
 43 45  1  0  0  0  0
 44 45  1  0  0  0  0
 45 46  2  0  0  0  0
 47 48  2  0  0  0  0
 47 49  1  0  0  0  0
 49 50  2  0  0  0  0
 49 51  1  0  0  0  0
 51 52  2  0  0  0  0
M  CHG  1  26   1
M  END
$$$$