
 OpenBabel11012010063D

 52 60  0  0  1  0  0  0  0  0999 V2000
    3.8927    7.5565   -5.2272 O   0  0  0  0  0  0  0  0  0  0  0  0
    3.4586    6.3849   -5.7922 C   0  0  0  0  0  0  0  0  0  0  0  0
    3.3175    5.2511   -5.0942 C   0  0  0  0  0  0  0  0  0  0  0  0
    3.6515    5.2024   -3.7532 O   0  0  0  0  0  0  0  0  0  0  0  0
    2.8549    4.3130   -2.9670 C   0  0  2  0  0  0  0  0  0  0  0  0
    3.1844    4.4052   -1.5821 O   0  0  0  0  0  0  0  0  0  0  0  0
    3.0262    5.6474   -0.9762 C   0  0  0  0  0  0  0  0  0  0  0  0
    3.8178    6.0477    0.0484 C   0  0  0  0  0  0  0  0  0  0  0  0
    3.6847    7.3095    0.6203 O   0  0  0  0  0  0  0  0  0  0  0  0
    2.7342    8.1941    0.1660 C   0  0  0  0  0  0  0  0  0  0  0  0
    1.8146    7.8399   -0.7427 C   0  0  0  0  0  0  0  0  0  0  0  0
    1.8936    6.5302   -1.4531 C   0  0  0  0  0  0  0  0  0  0  0  0
    0.6880    8.7753   -1.0910 C   0  0  3  0  0  0  0  0  0  0  0  0
   -0.5279    8.0952   -0.7401 O   0  0  0  0  0  0  0  0  0  0  0  0
   -1.6954    8.7485   -0.5813 C   0  0  0  0  0  0  0  0  0  0  0  0
   -2.7282    8.1172   -0.3743 O   0  0  0  0  0  0  0  0  0  0  0  0
   -1.7162   10.2391   -0.7200 C   0  0  0  0  0  0  0  0  0  0  0  0
   -0.3948   10.9361   -0.6556 C   0  0  0  0  0  0  0  0  0  0  0  0
   -0.2800   12.1466   -0.8188 O   0  0  0  0  0  0  0  0  0  0  0  0
    0.7729   10.0889   -0.3880 C   0  0  0  0  0  0  0  0  0  0  0  0
    1.7961   10.4309    0.4213 C   0  0  0  0  0  0  0  0  0  0  0  0
    2.7543    9.4623    0.6876 N   0  0  0  0  0  0  0  0  0  0  0  0
    1.9716   11.7434    1.0854 C   0  0  0  0  0  0  0  0  0  0  0  0
    1.4256   12.0126    2.3847 O   0  0  0  0  0  0  0  0  0  0  0  0
    2.8524   11.9108    2.2122 O   0  0  0  0  0  0  0  0  0  0  0  0
    4.8730    5.2084    0.6940 C   0  0  0  0  0  0  0  0  0  0  0  0
    4.6175    3.8812    0.6798 N   0  0  0  0  0  0  0  0  0  0  0  0
    5.5294    3.0757    1.2233 C   0  0  0  0  0  0  0  0  0  0  0  0
    6.6752    3.4649    1.7909 N   0  0  0  0  0  0  0  0  0  0  0  0
    6.9172    4.7760    1.8324 C   0  0  0  0  0  0  0  0  0  0  0  0
    6.0363    5.7343    1.3075 C   0  0  0  0  0  0  0  0  0  0  0  0
    6.3979    7.1035    1.4338 C   0  0  0  0  0  0  0  0  0  0  0  0
    7.5871    7.4986    2.0495 C   0  0  0  0  0  0  0  0  0  0  0  0
    8.4657    6.5478    2.5182 C   0  0  0  0  0  0  0  0  0  0  0  0
    8.1120    5.1981    2.4149 C   0  0  0  0  0  0  0  0  0  0  0  0
    9.6668    6.8137    3.0948 O   0  0  0  0  0  0  0  0  0  0  0  0
   10.1530    8.1562    3.0705 C   0  0  2  0  0  0  0  0  0  0  0  0
    9.2248    9.3092    2.7422 C   0  0  0  0  0  0  0  0  0  0  0  0
    9.5199   10.4912    2.8625 O   0  0  0  0  0  0  0  0  0  0  0  0
    7.8739    8.9236    2.2063 C   0  0  0  0  0  0  0  0  0  0  0  0
    7.0413    9.7720    1.9216 O   0  0  0  0  0  0  0  0  0  0  0  0
   11.3566    8.1923    2.1719 C   0  0  1  0  0  0  0  0  0  0  0  0
   11.1549    7.7716    0.8040 O   0  0  0  0  0  0  0  0  0  0  0  0
   12.2515    9.2978    2.3458 O   0  0  0  0  0  0  0  0  0  0  0  0
   12.6963    8.0970    2.7237 C   0  0  0  0  0  0  0  0  0  0  0  0
   13.1015    7.6921    3.8012 O   0  0  0  0  0  0  0  0  0  0  0  0
    3.0557    2.9009   -3.4886 C   0  0  0  0  0  0  0  0  0  0  0  0
    3.4310    1.9201   -2.8671 O   0  0  0  0  0  0  0  0  0  0  0  0
    2.6967    2.8063   -4.9484 C   0  0  0  0  0  0  0  0  0  0  0  0
    2.2356    1.7715   -5.4034 O   0  0  0  0  0  0  0  0  0  0  0  0
    2.8306    4.0414   -5.8175 C   0  0  0  0  0  0  0  0  0  0  0  0
    2.5274    4.0321   -6.9995 O   0  0  0  0  0  0  0  0  0  0  0  0
  1  2  1  0  0  0  0
  2  3  2  0  0  0  0
  3  4  1  0  0  0  0
  3 51  1  0  0  0  0
  4  5  1  0  0  0  0
  5  6  1  1  0  0  0
  5 47  1  0  0  0  0
  6  7  1  0  0  0  0
  7  8  2  0  0  0  0
  7 12  1  0  0  0  0
  8  9  1  0  0  0  0
  8 26  1  0  0  0  0
  9 10  1  0  0  0  0
 10 11  2  0  0  0  0
 10 22  1  0  0  0  0
 11 12  1  0  0  0  0
 11 13  1  0  0  0  0
 13 14  1  0  0  0  0
 13 20  1  0  0  0  0
 14 15  1  0  0  0  0
 15 16  2  0  0  0  0
 15 17  1  0  0  0  0
 17 18  1  0  0  0  0
 18 19  2  0  0  0  0
 18 20  1  0  0  0  0
 20 21  2  0  0  0  0
 21 22  1  0  0  0  0
 21 23  1  0  0  0  0
 23 24  1  0  0  0  0
 23 25  1  0  0  0  0
 24 25  1  0  0  0  0
 26 27  2  0  0  0  0
 26 31  1  0  0  0  0
 27 28  1  0  0  0  0
 28 29  2  0  0  0  0
 29 30  1  0  0  0  0
 30 31  2  0  0  0  0
 30 35  1  0  0  0  0
 31 32  1  0  0  0  0
 32 33  2  0  0  0  0
 33 34  1  0  0  0  0
 33 40  1  0  0  0  0
 34 35  2  0  0  0  0
 34 36  1  0  0  0  0
 37 36  1  6  0  0  0
 37 38  1  0  0  0  0
 37 42  1  0  0  0  0
 38 39  2  0  0  0  0
 38 40  1  0  0  0  0
 40 41  2  0  0  0  0
 42 43  1  6  0  0  0
 42 44  1  0  0  0  0
 42 45  1  0  0  0  0
 44 45  1  0  0  0  0
 45 46  2  0  0  0  0
 47 48  2  0  0  0  0
 47 49  1  0  0  0  0
 49 50  2  0  0  0  0
 49 51  1  0  0  0  0
 51 52  2  0  0  0  0
M  END
$$$$