
 OpenBabel11262000473D

 54 62  0  0  1  0  0  0  0  0999 V2000
    6.5611   -8.0748   -2.9881 O   0  0  0  0  0  0  0  0  0  0  0  0
    6.4946   -7.6808   -1.6746 C   0  0  0  0  0  0  0  0  0  0  0  0
    5.8346   -6.5855   -1.2816 C   0  0  0  0  0  0  0  0  0  0  0  0
    5.2223   -5.7557   -2.2061 O   0  0  0  0  0  0  0  0  0  0  0  0
    3.9524   -5.2931   -1.7660 C   0  0  2  0  0  0  0  0  0  0  0  0
    3.2592   -4.5634   -2.7956 O   0  0  0  0  0  0  0  0  0  0  0  0
    2.9264   -5.2093   -3.9759 C   0  0  0  0  0  0  0  0  0  0  0  0
    2.3235   -4.5172   -4.9615 C   0  0  0  0  0  0  0  0  0  0  0  0
    1.9100   -5.0661   -6.1614 O   0  0  0  0  0  0  0  0  0  0  0  0
    2.1460   -6.3996   -6.4007 C   0  0  0  0  0  0  0  0  0  0  0  0
    2.7403   -7.2189   -5.4684 C   0  0  0  0  0  0  0  0  0  0  0  0
    3.2022   -6.6831   -4.1506 C   0  0  0  0  0  0  0  0  0  0  0  0
    2.9089   -8.5546   -5.8247 C   0  0  0  0  0  0  0  0  0  0  0  0
    3.4636   -9.4055   -4.8749 O   0  0  0  0  0  0  0  0  0  0  0  0
    3.5712  -10.7498   -5.1448 C   0  0  0  0  0  0  0  0  0  0  0  0
    3.9792  -11.5395   -4.2204 N   0  0  0  0  0  0  0  0  0  0  0  0
    3.2554  -11.2200   -6.3633 O   0  0  0  0  0  0  0  0  0  0  0  0
    2.7841  -10.4389   -7.3530 C   0  0  0  0  0  0  0  0  0  0  0  0
    2.5333  -10.8971   -8.4586 O   0  0  0  0  0  0  0  0  0  0  0  0
    2.5383   -9.0272   -7.0644 C   0  0  0  0  0  0  0  0  0  0  0  0
    1.9512   -8.1387   -7.9718 C   0  0  0  0  0  0  0  0  0  0  0  0
    1.7369   -6.8326   -7.6060 N   0  0  0  0  0  0  0  0  0  0  0  0
    1.5260   -8.5418   -9.3675 C   0  0  0  0  0  0  0  0  0  0  0  0
    1.4949   -7.5186  -10.3775 O   0  0  0  0  0  0  0  0  0  0  0  0
    2.5329   -8.5172  -10.3908 O   0  0  0  0  0  0  0  0  0  0  0  0
    2.0046   -3.0786   -4.8591 C   0  0  0  0  0  0  0  0  0  0  0  0
    2.9606   -2.1629   -5.2762 C   0  0  0  0  0  0  0  0  0  0  0  0
    2.6059   -0.8444   -5.2832 C   0  0  0  0  0  0  0  0  0  0  0  0
    3.5031    0.0620   -5.6831 F   0  0  0  0  0  0  0  0  0  0  0  0
    1.3931   -0.4073   -4.9345 N   0  0  0  0  0  0  0  0  0  0  0  0
    0.4857   -1.3106   -4.5259 C   0  0  0  0  0  0  0  0  0  0  0  0
    0.7650   -2.6654   -4.4459 N   0  3  0  0  0  0  0  0  0  0  0  0
   -0.1762   -3.5224   -3.9610 C   0  0  0  0  0  0  0  0  0  0  0  0
   -1.4367   -3.0832   -3.5783 C   0  0  0  0  0  0  0  0  0  0  0  0
   -2.3844   -4.0285   -2.9977 C   0  0  0  0  0  0  0  0  0  0  0  0
   -2.0457   -5.1836   -2.8078 O   0  0  0  0  0  0  0  0  0  0  0  0
   -3.7444   -3.4804   -2.6232 C   0  0  0  0  0  0  0  0  0  0  0  0
   -4.4457   -4.0551   -1.8078 O   0  0  0  0  0  0  0  0  0  0  0  0
   -4.1090   -2.2081   -3.3572 C   0  0  1  0  0  0  0  0  0  0  0  0
   -3.0216   -1.2644   -3.4326 O   0  0  0  0  0  0  0  0  0  0  0  0
   -1.7839   -1.7625   -3.7232 C   0  0  0  0  0  0  0  0  0  0  0  0
   -0.8057   -0.8843   -4.1742 C   0  0  0  0  0  0  0  0  0  0  0  0
   -1.1196    0.4162   -4.2858 F   0  0  0  0  0  0  0  0  0  0  0  0
   -4.6231   -2.5186   -4.7266 C   0  0  1  0  0  0  0  0  0  0  0  0
   -3.7183   -3.2388   -5.6083 O   0  0  0  0  0  0  0  0  0  0  0  0
   -5.9862   -2.9138   -4.7837 O   0  0  0  0  0  0  0  0  0  0  0  0
   -5.6767   -1.7543   -5.3953 C   0  0  0  0  0  0  0  0  0  0  0  0
   -5.7517   -1.4538   -6.5719 O   0  0  0  0  0  0  0  0  0  0  0  0
    4.1629   -4.3580   -0.5918 C   0  0  0  0  0  0  0  0  0  0  0  0
    3.6711   -3.2443   -0.4831 O   0  0  0  0  0  0  0  0  0  0  0  0
    5.0289   -4.9764    0.4849 C   0  0  0  0  0  0  0  0  0  0  0  0
    5.0889   -4.4654    1.5892 O   0  0  0  0  0  0  0  0  0  0  0  0
    5.7669   -6.2695    0.1752 C   0  0  0  0  0  0  0  0  0  0  0  0
    6.1829   -7.0051    1.0522 O   0  0  0  0  0  0  0  0  0  0  0  0
  1  2  1  0  0  0  0
  2  3  2  0  0  0  0
  3  4  1  0  0  0  0
  3 53  1  0  0  0  0
  4  5  1  0  0  0  0
  5  6  1  6  0  0  0
  5 49  1  0  0  0  0
  6  7  1  0  0  0  0
  7  8  2  0  0  0  0
  7 12  1  0  0  0  0
  8  9  1  0  0  0  0
  8 26  1  0  0  0  0
  9 10  1  0  0  0  0
 10 11  2  0  0  0  0
 10 22  1  0  0  0  0
 11 12  1  0  0  0  0
 11 13  1  0  0  0  0
 13 14  1  0  0  0  0
 13 20  2  0  0  0  0
 14 15  1  0  0  0  0
 15 16  2  0  0  0  0
 15 17  1  0  0  0  0
 17 18  1  0  0  0  0
 18 19  2  0  0  0  0
 18 20  1  0  0  0  0
 20 21  1  0  0  0  0
 21 22  2  0  0  0  0
 21 23  1  0  0  0  0
 23 24  1  0  0  0  0
 23 25  1  0  0  0  0
 24 25  1  0  0  0  0
 26 27  2  0  0  0  0
 26 32  1  0  0  0  0
 27 28  1  0  0  0  0
 28 29  1  0  0  0  0
 28 30  2  0  0  0  0
 30 31  1  0  0  0  0
 31 32  2  0  0  0  0
 31 42  1  0  0  0  0
 32 33  1  0  0  0  0
 33 34  2  0  0  0  0
 34 35  1  0  0  0  0
 34 41  1  0  0  0  0
 35 36  2  0  0  0  0
 35 37  1  0  0  0  0
 37 38  2  0  0  0  0
 39 37  1  6  0  0  0
 39 40  1  0  0  0  0
 39 44  1  0  0  0  0
 40 41  1  0  0  0  0
 41 42  2  0  0  0  0
 42 43  1  0  0  0  0
 44 45  1  6  0  0  0
 44 46  1  0  0  0  0
 44 47  1  0  0  0  0
 46 47  1  0  0  0  0
 47 48  2  0  0  0  0
 49 50  2  0  0  0  0
 49 51  1  0  0  0  0
 51 52  2  0  0  0  0
 51 53  1  0  0  0  0
 53 54  2  0  0  0  0
M  CHG  1  32   1
M  END
$$$$