
 OpenBabel11232002453D

 54 62  0  0  1  0  0  0  0  0999 V2000
    2.9106    3.2049   -3.1395 O   0  0  0  0  0  0  0  0  0  0  0  0
    3.3589    2.2129   -2.2997 C   0  0  0  0  0  0  0  0  0  0  0  0
    3.0253    0.9304   -2.4709 C   0  0  0  0  0  0  0  0  0  0  0  0
    2.1853    0.5679   -3.5058 O   0  0  0  0  0  0  0  0  0  0  0  0
    2.3234   -0.7762   -3.9403 C   0  0  2  0  0  0  0  0  0  0  0  0
    1.5021   -1.0717   -5.0919 O   0  0  0  0  0  0  0  0  0  0  0  0
    1.7374   -0.3708   -6.2668 C   0  0  0  0  0  0  0  0  0  0  0  0
    1.4643   -0.9087   -7.4799 C   0  0  0  0  0  0  0  0  0  0  0  0
    1.6272   -0.1570   -8.6569 O   0  0  0  0  0  0  0  0  0  0  0  0
    1.9082    1.2116   -8.6050 C   0  0  0  0  0  0  0  0  0  0  0  0
    2.1908    1.8067   -7.4363 C   0  0  0  0  0  0  0  0  0  0  0  0
    2.1815    1.0651   -6.1446 C   0  0  0  0  0  0  0  0  0  0  0  0
    2.5088    3.2666   -7.3284 C   0  0  3  0  0  0  0  0  0  0  0  0
    3.8107    3.4018   -6.7861 O   0  0  0  0  0  0  0  0  0  0  0  0
    4.1745    4.6877   -6.5167 C   0  0  0  0  0  0  0  0  0  0  0  0
    5.0455    4.9621   -5.7099 O   0  0  0  0  0  0  0  0  0  0  0  0
    3.4399    5.6234   -7.1780 O   0  0  0  0  0  0  0  0  0  0  0  0
    3.0502    5.3245   -8.5122 C   0  0  3  0  0  0  0  0  0  0  0  0
    2.5549    3.9227   -8.6537 C   0  0  0  0  0  0  0  0  0  0  0  0
    2.2559    3.2769   -9.8063 C   0  0  0  0  0  0  0  0  0  0  0  0
    1.8925    1.9316   -9.7816 O   0  3  0  0  0  0  0  0  0  0  0  0
    2.3265    3.8992  -11.1440 C   0  0  3  0  0  0  0  0  0  0  0  0
    2.0296    3.0590  -12.2588 N   0  0  0  0  0  0  0  0  0  0  0  0
    3.2302    3.3226  -12.0737 N   0  0  0  0  0  0  0  0  0  0  0  0
    1.9689    6.2086   -8.8913 N   0  0  0  0  0  0  0  0  0  0  0  0
    0.9445   -2.3130   -7.6775 C   0  0  0  0  0  0  0  0  0  0  0  0
    1.3205   -3.3192   -6.7814 C   0  0  0  0  0  0  0  0  0  0  0  0
    0.8454   -4.5645   -6.8780 N   0  3  0  0  0  0  0  0  0  0  0  0
    1.2473   -5.4895   -5.9843 F   0  0  0  0  0  0  0  0  0  0  0  0
   -0.0028   -4.9272   -7.8144 N   0  0  0  0  0  0  0  0  0  0  0  0
   -0.4027   -4.0386   -8.7234 C   0  0  0  0  0  0  0  0  0  0  0  0
    0.0657   -2.7070   -8.7252 C   0  0  0  0  0  0  0  0  0  0  0  0
   -0.3879   -1.8736   -9.7755 C   0  0  0  0  0  0  0  0  0  0  0  0
   -1.2794   -2.3219  -10.7561 C   0  0  0  0  0  0  0  0  0  0  0  0
   -1.6325   -1.4302  -11.8628 C   0  0  0  0  0  0  0  0  0  0  0  0
   -1.0442   -0.3651  -11.9941 O   0  0  0  0  0  0  0  0  0  0  0  0
   -2.7034   -1.9176  -12.8137 C   0  0  0  0  0  0  0  0  0  0  0  0
   -2.9174   -1.3212  -13.8569 O   0  0  0  0  0  0  0  0  0  0  0  0
   -3.4894   -3.1113  -12.3061 C   0  0  1  0  0  0  0  0  0  0  0  0
   -2.7175   -4.0813  -11.5770 O   0  0  0  0  0  0  0  0  0  0  0  0
   -1.7945   -3.5965  -10.6987 C   0  0  0  0  0  0  0  0  0  0  0  0
   -1.3226   -4.4445   -9.6961 C   0  0  0  0  0  0  0  0  0  0  0  0
   -1.7763   -5.7073   -9.6556 F   0  0  0  0  0  0  0  0  0  0  0  0
   -4.6533   -2.6516  -11.4879 C   0  0  1  0  0  0  0  0  0  0  0  0
   -4.3477   -1.8502  -10.3136 O   0  0  0  0  0  0  0  0  0  0  0  0
   -5.7862   -2.2323  -12.2393 O   0  0  0  0  0  0  0  0  0  0  0  0
   -5.9591   -3.3271  -11.4624 C   0  0  0  0  0  0  0  0  0  0  0  0
   -6.6898   -3.4939  -10.5204 O   0  0  0  0  0  0  0  0  0  0  0  0
    1.8705   -1.6456   -2.7875 C   0  0  0  0  0  0  0  0  0  0  0  0
    0.9950   -2.4955   -2.8510 O   0  0  0  0  0  0  0  0  0  0  0  0
    2.6810   -1.3704   -1.5388 C   0  0  0  0  0  0  0  0  0  0  0  0
    2.7114   -2.1850   -0.6353 O   0  0  0  0  0  0  0  0  0  0  0  0
    3.5068   -0.0909   -1.4994 C   0  0  0  0  0  0  0  0  0  0  0  0
    4.5082    0.0261   -0.8200 O   0  0  0  0  0  0  0  0  0  0  0  0
  1  2  1  0  0  0  0
  2  3  2  0  0  0  0
  3  4  1  0  0  0  0
  3 53  1  0  0  0  0
  4  5  1  0  0  0  0
  5  6  1  6  0  0  0
  5 49  1  0  0  0  0
  6  7  1  0  0  0  0
  7  8  2  0  0  0  0
  7 12  1  0  0  0  0
  8  9  1  0  0  0  0
  8 26  1  0  0  0  0
  9 10  1  0  0  0  0
 10 11  2  0  0  0  0
 10 21  1  0  0  0  0
 11 12  1  0  0  0  0
 11 13  1  0  0  0  0
 13 14  1  0  0  0  0
 13 19  1  0  0  0  0
 14 15  1  0  0  0  0
 15 16  2  0  0  0  0
 15 17  1  0  0  0  0
 17 18  1  0  0  0  0
 18 19  1  0  0  0  0
 18 25  1  0  0  0  0
 19 20  2  0  0  0  0
 20 21  1  0  0  0  0
 20 22  1  0  0  0  0
 22 23  1  0  0  0  0
 22 24  1  0  0  0  0
 23 24  2  0  0  0  0
 26 27  2  0  0  0  0
 26 32  1  0  0  0  0
 27 28  1  0  0  0  0
 28 29  1  0  0  0  0
 28 30  2  0  0  0  0
 30 31  1  0  0  0  0
 31 32  2  0  0  0  0
 31 42  1  0  0  0  0
 32 33  1  0  0  0  0
 33 34  2  0  0  0  0
 34 35  1  0  0  0  0
 34 41  1  0  0  0  0
 35 36  2  0  0  0  0
 35 37  1  0  0  0  0
 37 38  2  0  0  0  0
 39 37  1  1  0  0  0
 39 40  1  0  0  0  0
 39 44  1  0  0  0  0
 40 41  1  0  0  0  0
 41 42  2  0  0  0  0
 42 43  1  0  0  0  0
 44 45  1  1  0  0  0
 44 46  1  0  0  0  0
 44 47  1  0  0  0  0
 46 47  1  0  0  0  0
 47 48  2  0  0  0  0
 49 50  2  0  0  0  0
 49 51  1  0  0  0  0
 51 52  2  0  0  0  0
 51 53  1  0  0  0  0
 53 54  2  0  0  0  0
M  CHG  2  21   1  28   1
M  END
$$$$