
 OpenBabel11222022203D

 54 62  0  0  1  0  0  0  0  0999 V2000
    9.5717  -10.0322    3.1629 O   0  0  0  0  0  0  0  0  0  0  0  0
   10.1543   -8.8232    3.4519 C   0  0  0  0  0  0  0  0  0  0  0  0
   10.0904   -7.7788    2.6172 C   0  0  0  0  0  0  0  0  0  0  0  0
    9.4415   -7.9142    1.3978 O   0  0  0  0  0  0  0  0  0  0  0  0
    9.0363   -6.7107    0.7547 C   0  0  2  0  0  0  0  0  0  0  0  0
    8.4990   -6.9971   -0.5574 O   0  0  0  0  0  0  0  0  0  0  0  0
    7.3674   -7.8006   -0.6022 C   0  0  0  0  0  0  0  0  0  0  0  0
    7.1360   -8.6218   -1.6495 C   0  0  0  0  0  0  0  0  0  0  0  0
    5.9964   -9.4283   -1.7374 O   0  0  0  0  0  0  0  0  0  0  0  0
    4.9802   -9.2993   -0.7811 C   0  0  0  0  0  0  0  0  0  0  0  0
    5.0985   -8.4468    0.2543 C   0  0  0  0  0  0  0  0  0  0  0  0
    6.3527   -7.6646    0.5075 C   0  0  0  0  0  0  0  0  0  0  0  0
    3.9717   -8.2026    1.2240 C   0  0  3  0  0  0  0  0  0  0  0  0
    3.5603   -6.8604    1.0232 O   0  0  0  0  0  0  0  0  0  0  0  0
    2.4633   -6.4078    1.6873 C   0  0  0  0  0  0  0  0  0  0  0  0
    2.2122   -5.2160    1.7483 O   0  0  0  0  0  0  0  0  0  0  0  0
    1.6729   -7.3520    2.2492 O   0  0  0  0  0  0  0  0  0  0  0  0
    1.7052   -8.7276    1.8886 C   0  0  3  0  0  0  0  0  0  0  0  0
    2.7931   -9.0442    0.9268 C   0  0  0  0  0  0  0  0  0  0  0  0
    2.7563   -9.9278   -0.0940 C   0  0  0  0  0  0  0  0  0  0  0  0
    3.8426  -10.0590   -0.9478 O   0  3  0  0  0  0  0  0  0  0  0  0
    1.5827  -10.7748   -0.4070 C   0  0  0  0  0  0  0  0  0  0  0  0
    0.5798  -10.3261   -1.3262 O   0  0  0  0  0  0  0  0  0  0  0  0
    1.4650  -11.4005   -1.6971 O   0  0  0  0  0  0  0  0  0  0  0  0
    1.9953   -9.4977    3.0363 O   0  0  0  0  0  0  0  0  0  0  0  0
    8.0575   -8.7213   -2.8117 C   0  0  0  0  0  0  0  0  0  0  0  0
    7.8855   -7.8357   -3.8766 C   0  0  0  0  0  0  0  0  0  0  0  0
    8.7108   -7.8617   -4.9312 N   0  3  0  0  0  0  0  0  0  0  0  0
    8.5183   -6.9919   -5.9421 F   0  0  0  0  0  0  0  0  0  0  0  0
    9.7137   -8.7118   -5.0267 N   0  0  0  0  0  0  0  0  0  0  0  0
    9.9487   -9.5772   -4.0385 C   0  0  0  0  0  0  0  0  0  0  0  0
    9.1337   -9.6339   -2.8881 C   0  0  0  0  0  0  0  0  0  0  0  0
    9.4488  -10.5881   -1.8918 C   0  0  0  0  0  0  0  0  0  0  0  0
   10.5652  -11.4283   -2.0249 C   0  0  0  0  0  0  0  0  0  0  0  0
   10.8755  -12.4198   -0.9915 C   0  0  0  0  0  0  0  0  0  0  0  0
   10.0660  -12.6608   -0.1110 O   0  0  0  0  0  0  0  0  0  0  0  0
   12.2285  -13.0891   -1.0613 C   0  0  0  0  0  0  0  0  0  0  0  0
   12.4986  -13.9967   -0.2902 O   0  0  0  0  0  0  0  0  0  0  0  0
   13.1740  -12.4420   -2.0791 C   0  0  3  0  0  0  0  0  0  0  0  0
   12.4895  -12.1296   -3.3050 O   0  0  0  0  0  0  0  0  0  0  0  0
   11.3845  -11.3430   -3.1355 C   0  0  0  0  0  0  0  0  0  0  0  0
   11.0431  -10.4402   -4.1408 C   0  0  0  0  0  0  0  0  0  0  0  0
   11.8137  -10.3698   -5.2375 F   0  0  0  0  0  0  0  0  0  0  0  0
   14.3289  -13.2226   -2.3737 O   0  0  0  0  0  0  0  0  0  0  0  0
   15.1520  -13.4821   -1.2099 C   0  0  2  0  0  0  0  0  0  0  0  0
   15.6828  -12.3132   -0.5727 O   0  0  0  0  0  0  0  0  0  0  0  0
   16.5448  -13.0726   -1.2659 C   0  0  0  0  0  0  0  0  0  0  0  0
   17.5707  -13.6125   -0.9091 O   0  0  0  0  0  0  0  0  0  0  0  0
   10.2332   -5.7996    0.6074 C   0  0  0  0  0  0  0  0  0  0  0  0
   10.7235   -5.4167   -0.4422 O   0  0  0  0  0  0  0  0  0  0  0  0
   10.7977   -5.4436    1.9542 C   0  0  0  0  0  0  0  0  0  0  0  0
   11.1445   -4.2995    2.1831 O   0  0  0  0  0  0  0  0  0  0  0  0
   10.7893   -6.5188    3.0249 C   0  0  0  0  0  0  0  0  0  0  0  0
   11.2981   -6.3447    4.1175 O   0  0  0  0  0  0  0  0  0  0  0  0
  1  2  1  0  0  0  0
  2  3  2  0  0  0  0
  3  4  1  0  0  0  0
  3 53  1  0  0  0  0
  4  5  1  0  0  0  0
  5  6  1  6  0  0  0
  5 49  1  0  0  0  0
  6  7  1  0  0  0  0
  7  8  2  0  0  0  0
  7 12  1  0  0  0  0
  8  9  1  0  0  0  0
  8 26  1  0  0  0  0
  9 10  1  0  0  0  0
 10 11  2  0  0  0  0
 10 21  1  0  0  0  0
 11 12  1  0  0  0  0
 11 13  1  0  0  0  0
 13 14  1  0  0  0  0
 13 19  1  0  0  0  0
 14 15  1  0  0  0  0
 15 16  2  0  0  0  0
 15 17  1  0  0  0  0
 17 18  1  0  0  0  0
 18 19  1  0  0  0  0
 18 25  1  0  0  0  0
 19 20  2  0  0  0  0
 20 21  1  0  0  0  0
 20 22  1  0  0  0  0
 22 23  1  0  0  0  0
 22 24  1  0  0  0  0
 23 24  1  0  0  0  0
 26 27  2  0  0  0  0
 26 32  1  0  0  0  0
 27 28  1  0  0  0  0
 28 29  1  0  0  0  0
 28 30  2  0  0  0  0
 30 31  1  0  0  0  0
 31 32  2  0  0  0  0
 31 42  1  0  0  0  0
 32 33  1  0  0  0  0
 33 34  2  0  0  0  0
 34 35  1  0  0  0  0
 34 41  1  0  0  0  0
 35 36  2  0  0  0  0
 35 37  1  0  0  0  0
 37 38  2  0  0  0  0
 37 39  1  0  0  0  0
 39 40  1  0  0  0  0
 39 44  1  0  0  0  0
 40 41  1  0  0  0  0
 41 42  2  0  0  0  0
 42 43  1  0  0  0  0
 45 46  1  0  0  0  0
 45 47  1  0  0  0  0
 45 44  1  6  0  0  0
 46 47  1  0  0  0  0
 47 48  2  0  0  0  0
 49 50  2  0  0  0  0
 49 51  1  0  0  0  0
 51 52  2  0  0  0  0
 51 53  1  0  0  0  0
 53 54  2  0  0  0  0
M  CHG  2  21   1  28   1
M  END
$$$$