
 OpenBabel10242017333D

 51 58  0  0  1  0  0  0  0  0999 V2000
    5.8179   -4.9606   -5.9300 O   0  0  0  0  0  0  0  0  0  0  0  0
    5.8092   -5.2448   -4.5898 C   0  0  0  0  0  0  0  0  0  0  0  0
    5.0938   -4.5438   -3.7021 C   0  0  0  0  0  0  0  0  0  0  0  0
    4.3437   -3.4441   -4.0739 O   0  0  0  0  0  0  0  0  0  0  0  0
    3.0042   -3.5192   -3.5932 C   0  0  2  0  0  0  0  0  0  0  0  0
    2.2084   -2.4118   -4.0531 O   0  0  0  0  0  0  0  0  0  0  0  0
    2.0661   -2.2381   -5.4223 C   0  0  0  0  0  0  0  0  0  0  0  0
    1.8622   -1.0104   -5.9495 C   0  0  0  0  0  0  0  0  0  0  0  0
    1.6921   -0.7818   -7.3157 O   0  0  0  0  0  0  0  0  0  0  0  0
    1.8361   -1.8413   -8.2029 C   0  0  0  0  0  0  0  0  0  0  0  0
    2.0024   -3.0982   -7.7657 C   0  0  0  0  0  0  0  0  0  0  0  0
    2.0842   -3.4516   -6.3201 C   0  0  0  0  0  0  0  0  0  0  0  0
    2.1444   -4.1895   -8.7700 C   0  0  0  0  0  0  0  0  0  0  0  0
    2.2548   -5.4137   -8.3710 N   0  0  0  0  0  0  0  0  0  0  0  0
    2.3887   -6.4179   -9.3044 C   0  0  0  0  0  0  0  0  0  0  0  0
    2.4138   -7.5747   -8.9046 O   0  0  0  0  0  0  0  0  0  0  0  0
    2.5188   -6.1792  -10.6552 N   0  0  0  0  0  0  0  0  0  0  0  0
    2.3991   -4.9694  -11.0876 C   0  0  0  0  0  0  0  0  0  0  0  0
    2.1547   -3.8187  -10.2066 C   0  0  0  0  0  0  0  0  0  0  0  0
    1.9611   -2.5242  -10.5272 C   0  0  0  0  0  0  0  0  0  0  0  0
    1.8146   -1.5426   -9.5471 N   0  0  0  0  0  0  0  0  0  0  0  0
    1.9059   -2.1041  -11.9629 C   0  0  0  0  0  0  0  0  0  0  0  0
    1.6048   -2.8310  -12.8915 O   0  0  0  0  0  0  0  0  0  0  0  0
    2.1968   -0.7940  -12.1177 O   0  0  0  0  0  0  0  0  0  0  0  0
    1.8178    0.2204   -5.1336 C   0  0  0  0  0  0  0  0  0  0  0  0
    3.0169    0.8194   -4.9724 N   0  0  0  0  0  0  0  0  0  0  0  0
    3.0140    1.9463   -4.2545 C   0  0  0  0  0  0  0  0  0  0  0  0
    1.9397    2.5366   -3.7135 N   0  0  0  0  0  0  0  0  0  0  0  0
    0.7606    1.9299   -3.8745 C   0  0  0  0  0  0  0  0  0  0  0  0
    0.6250    0.7319   -4.5929 C   0  0  0  0  0  0  0  0  0  0  0  0
   -0.6528    0.1395   -4.7121 C   0  0  0  0  0  0  0  0  0  0  0  0
   -1.7571    0.7256   -4.0886 C   0  0  0  0  0  0  0  0  0  0  0  0
   -1.6375    1.9129   -3.3658 C   0  0  0  0  0  0  0  0  0  0  0  0
   -0.3712    2.5034   -3.2945 C   0  0  0  0  0  0  0  0  0  0  0  0
   -2.7029    2.5400   -2.6865 N   0  0  0  0  0  0  0  0  0  0  0  0
   -3.8418    1.9258   -2.5590 C   0  0  0  0  0  0  0  0  0  0  0  0
   -4.1056    0.5995   -3.1999 C   0  0  0  0  0  0  0  0  0  0  0  0
   -5.1295   -0.0181   -2.9676 O   0  0  0  0  0  0  0  0  0  0  0  0
   -3.0697    0.0751   -4.1652 C   0  0  0  0  0  0  0  0  0  0  0  0
   -3.3165   -0.8139   -4.9624 O   0  0  0  0  0  0  0  0  0  0  0  0
   -4.9572    2.5320   -1.8235 C   0  0  1  0  0  0  0  0  0  0  0  0
   -5.8783    3.3199   -2.6079 O   0  0  0  0  0  0  0  0  0  0  0  0
   -5.5939    1.7295   -0.8232 O   0  0  0  0  0  0  0  0  0  0  0  0
   -4.8838    2.7740   -0.3967 C   0  0  0  0  0  0  0  0  0  0  0  0
   -3.9602    2.8007    0.4131 O   0  0  0  0  0  0  0  0  0  0  0  0
    2.9545   -3.5088   -2.0712 C   0  0  0  0  0  0  0  0  0  0  0  0
    2.0682   -3.0067   -1.3922 O   0  0  0  0  0  0  0  0  0  0  0  0
    4.0793   -4.2837   -1.4204 C   0  0  0  0  0  0  0  0  0  0  0  0
    4.1371   -4.3760   -0.2033 O   0  0  0  0  0  0  0  0  0  0  0  0
    5.1125   -4.9787   -2.2806 C   0  0  0  0  0  0  0  0  0  0  0  0
    5.8464   -5.8465   -1.8379 O   0  0  0  0  0  0  0  0  0  0  0  0
  1  2  1  0  0  0  0
  2  3  2  0  0  0  0
  3  4  1  0  0  0  0
  3 50  1  0  0  0  0
  4  5  1  0  0  0  0
  5  6  1  6  0  0  0
  5 46  1  0  0  0  0
  6  7  1  0  0  0  0
  7  8  2  0  0  0  0
  7 12  1  0  0  0  0
  8  9  1  0  0  0  0
  8 25  1  0  0  0  0
  9 10  1  0  0  0  0
 10 11  2  0  0  0  0
 10 21  1  0  0  0  0
 11 12  1  0  0  0  0
 11 13  1  0  0  0  0
 13 14  2  0  0  0  0
 13 19  1  0  0  0  0
 14 15  1  0  0  0  0
 15 16  2  0  0  0  0
 15 17  1  0  0  0  0
 17 18  2  0  0  0  0
 18 19  1  0  0  0  0
 19 20  2  0  0  0  0
 20 21  1  0  0  0  0
 20 22  1  0  0  0  0
 22 23  2  0  0  0  0
 22 24  1  0  0  0  0
 25 26  2  0  0  0  0
 25 30  1  0  0  0  0
 26 27  1  0  0  0  0
 27 28  2  0  0  0  0
 28 29  1  0  0  0  0
 29 30  2  0  0  0  0
 29 34  1  0  0  0  0
 30 31  1  0  0  0  0
 31 32  2  0  0  0  0
 32 33  1  0  0  0  0
 32 39  1  0  0  0  0
 33 34  2  0  0  0  0
 33 35  1  0  0  0  0
 35 36  2  0  0  0  0
 36 37  1  0  0  0  0
 37 38  2  0  0  0  0
 37 39  1  0  0  0  0
 39 40  2  0  0  0  0
 41 36  1  6  0  0  0
 41 42  1  0  0  0  0
 41 43  1  0  0  0  0
 41 44  1  0  0  0  0
 43 44  1  0  0  0  0
 44 45  2  0  0  0  0
 46 47  2  0  0  0  0
 46 48  1  0  0  0  0
 48 49  2  0  0  0  0
 48 50  1  0  0  0  0
 50 51  2  0  0  0  0
M  END
$$$$