
 OpenBabel11212022303D

 54 62  0  0  1  0  0  0  0  0999 V2000
    7.4219    0.0765    5.8836 O   0  0  0  0  0  0  0  0  0  0  0  0
    7.1983    0.8870    4.7999 C   0  0  0  0  0  0  0  0  0  0  0  0
    6.0496    0.8979    4.1096 C   0  0  0  0  0  0  0  0  0  0  0  0
    5.0100    0.0356    4.4380 O   0  0  0  0  0  0  0  0  0  0  0  0
    3.7016    0.4570    4.0713 C   0  0  2  0  0  0  0  0  0  0  0  0
    2.7250   -0.6093    4.2457 O   0  0  0  0  0  0  0  0  0  0  0  0
    2.5225   -1.1851    5.4886 C   0  0  0  0  0  0  0  0  0  0  0  0
    2.1429   -2.4831    5.6205 C   0  0  0  0  0  0  0  0  0  0  0  0
    2.0709   -3.0794    6.8898 O   0  0  0  0  0  0  0  0  0  0  0  0
    2.6090   -2.4323    8.0046 C   0  0  0  0  0  0  0  0  0  0  0  0
    2.8349   -1.1078    7.9723 C   0  0  0  0  0  0  0  0  0  0  0  0
    2.6319   -0.3097    6.7183 C   0  0  0  0  0  0  0  0  0  0  0  0
    3.3243   -0.3523    9.1751 C   0  0  3  0  0  0  0  0  0  0  0  0
    2.2771    0.5083    9.5805 O   0  0  0  0  0  0  0  0  0  0  0  0
    2.4699    1.2403   10.7082 C   0  0  0  0  0  0  0  0  0  0  0  0
    1.7535    2.2050   10.9678 O   0  0  0  0  0  0  0  0  0  0  0  0
    3.4827    0.8531   11.5129 O   0  0  0  0  0  0  0  0  0  0  0  0
    4.0649   -0.4478   11.4748 C   0  0  3  0  0  0  0  0  0  0  0  0
    3.5954   -1.2519   10.3173 C   0  0  0  0  0  0  0  0  0  0  0  0
    3.4112   -2.5899   10.2701 C   0  0  0  0  0  0  0  0  0  0  0  0
    2.8820   -3.1843    9.1311 O   0  3  0  0  0  0  0  0  0  0  0  0
    3.7253   -3.4966   11.3988 C   0  0  0  0  0  0  0  0  0  0  0  0
    2.7296   -3.8361   12.3701 O   0  0  0  0  0  0  0  0  0  0  0  0
    3.1917   -4.8303   11.4344 O   0  0  0  0  0  0  0  0  0  0  0  0
    5.4603   -0.3213   11.2885 O   0  0  0  0  0  0  0  0  0  0  0  0
    1.7559   -3.3896    4.4735 C   0  0  0  0  0  0  0  0  0  0  0  0
    1.1741   -2.8203    3.3350 C   0  0  0  0  0  0  0  0  0  0  0  0
    0.8610   -3.5573    2.2648 N   0  3  0  0  0  0  0  0  0  0  0  0
    0.3544   -2.9464    1.1757 F   0  0  0  0  0  0  0  0  0  0  0  0
    1.0440   -4.8611    2.2219 N   0  0  0  0  0  0  0  0  0  0  0  0
    1.5310   -5.5001    3.2860 C   0  0  0  0  0  0  0  0  0  0  0  0
    1.8877   -4.8115    4.4662 C   0  0  0  0  0  0  0  0  0  0  0  0
    2.3371   -5.6077    5.5484 C   0  0  0  0  0  0  0  0  0  0  0  0
    2.4248   -7.0047    5.4709 C   0  0  0  0  0  0  0  0  0  0  0  0
    2.7503   -7.7748    6.6741 C   0  0  0  0  0  0  0  0  0  0  0  0
    2.9417   -7.2030    7.7384 O   0  0  0  0  0  0  0  0  0  0  0  0
    2.7457   -9.2791    6.5051 C   0  0  0  0  0  0  0  0  0  0  0  0
    2.4233   -9.9960    7.4380 O   0  0  0  0  0  0  0  0  0  0  0  0
    3.0869   -9.7314    5.0981 C   0  0  1  0  0  0  0  0  0  0  0  0
    2.3319   -9.0035    4.1022 O   0  0  0  0  0  0  0  0  0  0  0  0
    2.1670   -7.6599    4.2877 C   0  0  0  0  0  0  0  0  0  0  0  0
    1.7009   -6.8922    3.2191 C   0  0  0  0  0  0  0  0  0  0  0  0
    1.4025   -7.5144    2.0674 F   0  0  0  0  0  0  0  0  0  0  0  0
    4.5704   -9.6352    4.8172 C   0  0  1  0  0  0  0  0  0  0  0  0
    5.1431   -8.3051    4.9132 O   0  0  0  0  0  0  0  0  0  0  0  0
    5.3529  -10.6308    5.4501 O   0  0  0  0  0  0  0  0  0  0  0  0
    5.3779  -10.6235    4.0978 C   0  0  0  0  0  0  0  0  0  0  0  0
    5.0258  -11.9737    3.2637 S   0  0  0  0  0  0  0  0  0  0  0  0
    3.6305    0.8252    2.6002 C   0  0  0  0  0  0  0  0  0  0  0  0
    2.8418    0.3542    1.7912 O   0  0  0  0  0  0  0  0  0  0  0  0
    4.6675    1.8453    2.2171 C   0  0  0  0  0  0  0  0  0  0  0  0
    4.4077    2.6860    1.3745 O   0  0  0  0  0  0  0  0  0  0  0  0
    5.9903    1.8377    2.9474 C   0  0  0  0  0  0  0  0  0  0  0  0
    6.9157    2.5507    2.5994 O   0  0  0  0  0  0  0  0  0  0  0  0
  1  2  1  0  0  0  0
  2  3  2  0  0  0  0
  3  4  1  0  0  0  0
  3 53  1  0  0  0  0
  4  5  1  0  0  0  0
  5  6  1  6  0  0  0
  5 49  1  0  0  0  0
  6  7  1  0  0  0  0
  7  8  2  0  0  0  0
  7 12  1  0  0  0  0
  8  9  1  0  0  0  0
  8 26  1  0  0  0  0
  9 10  1  0  0  0  0
 10 11  2  0  0  0  0
 10 21  1  0  0  0  0
 11 12  1  0  0  0  0
 11 13  1  0  0  0  0
 13 14  1  0  0  0  0
 13 19  1  0  0  0  0
 14 15  1  0  0  0  0
 15 16  2  0  0  0  0
 15 17  1  0  0  0  0
 17 18  1  0  0  0  0
 18 19  1  0  0  0  0
 18 25  1  0  0  0  0
 19 20  2  0  0  0  0
 20 21  1  0  0  0  0
 20 22  1  0  0  0  0
 22 23  1  0  0  0  0
 22 24  1  0  0  0  0
 23 24  1  0  0  0  0
 26 27  2  0  0  0  0
 26 32  1  0  0  0  0
 27 28  1  0  0  0  0
 28 29  1  0  0  0  0
 28 30  2  0  0  0  0
 30 31  1  0  0  0  0
 31 32  2  0  0  0  0
 31 42  1  0  0  0  0
 32 33  1  0  0  0  0
 33 34  2  0  0  0  0
 34 35  1  0  0  0  0
 34 41  1  0  0  0  0
 35 36  2  0  0  0  0
 35 37  1  0  0  0  0
 37 38  2  0  0  0  0
 39 37  1  1  0  0  0
 39 40  1  0  0  0  0
 39 44  1  0  0  0  0
 40 41  1  0  0  0  0
 41 42  2  0  0  0  0
 42 43  1  0  0  0  0
 44 45  1  1  0  0  0
 44 46  1  0  0  0  0
 44 47  1  0  0  0  0
 46 47  1  0  0  0  0
 47 48  2  0  0  0  0
 49 50  2  0  0  0  0
 49 51  1  0  0  0  0
 51 52  2  0  0  0  0
 51 53  1  0  0  0  0
 53 54  2  0  0  0  0
M  CHG  2  21   1  28   1
M  END
$$$$