
 OpenBabel09292018393D

 51 59  0  0  1  0  0  0  0  0999 V2000
    0.4086    4.3056   -1.0267 O   0  0  0  0  0  0  0  0  0  0  0  0
    1.4047    3.5932   -0.4097 C   0  0  0  0  0  0  0  0  0  0  0  0
    2.2005    2.7492   -1.0756 C   0  0  0  0  0  0  0  0  0  0  0  0
    2.0264    2.5412   -2.4328 O   0  0  0  0  0  0  0  0  0  0  0  0
    3.1923    2.0854   -3.1225 C   0  0  2  0  0  0  0  0  0  0  0  0
    2.9593    2.0263   -4.5356 O   0  0  0  0  0  0  0  0  0  0  0  0
    2.6066    3.2230   -5.1559 C   0  0  0  0  0  0  0  0  0  0  0  0
    1.8574    3.2381   -6.2817 C   0  0  0  0  0  0  0  0  0  0  0  0
    1.5259    4.4085   -6.9569 O   0  0  0  0  0  0  0  0  0  0  0  0
    2.0462    5.6141   -6.5329 C   0  0  0  0  0  0  0  0  0  0  0  0
    2.8294    5.7039   -5.4586 C   0  0  0  0  0  0  0  0  0  0  0  0
    3.1785    4.5217   -4.6178 C   0  0  0  0  0  0  0  0  0  0  0  0
    3.2986    7.0406   -5.0653 C   0  0  0  0  0  0  0  0  0  0  0  0
    3.8792    7.2567   -3.9477 N   0  0  0  0  0  0  0  0  0  0  0  0
    4.2752    8.5317   -3.6704 C   0  0  0  0  0  0  0  0  0  0  0  0
    4.9460    8.7202   -2.6661 O   0  0  0  0  0  0  0  0  0  0  0  0
    3.9667    9.6023   -4.4567 N   0  0  0  0  0  0  0  0  0  0  0  0
    3.4068    9.3628   -5.5745 C   0  0  0  0  0  0  0  0  0  0  0  0
    3.0733    8.0686   -5.9991 N   0  0  0  0  0  0  0  0  0  0  0  0
    2.5592    7.8685   -7.3429 C   0  0  3  0  0  0  0  0  0  0  0  0
    1.7165    6.7079   -7.2789 N   0  0  0  0  0  0  0  0  0  0  0  0
    3.6776    7.6800   -8.3236 C   0  0  0  0  0  0  0  0  0  0  0  0
    3.2743    7.5195   -9.6847 O   0  0  0  0  0  0  0  0  0  0  0  0
    3.8745    8.7585   -9.2374 O   0  0  0  0  0  0  0  0  0  0  0  0
    1.4253    2.0378   -7.0193 C   0  0  0  0  0  0  0  0  0  0  0  0
    2.2962    1.6955   -7.9970 N   0  0  0  0  0  0  0  0  0  0  0  0
    1.9401    0.6685   -8.7700 C   0  0  0  0  0  0  0  0  0  0  0  0
    0.8121   -0.0395   -8.6600 N   0  0  0  0  0  0  0  0  0  0  0  0
   -0.0426    0.3180   -7.7001 C   0  0  0  0  0  0  0  0  0  0  0  0
    0.1908    1.3920   -6.8256 C   0  0  0  0  0  0  0  0  0  0  0  0
   -0.8147    1.7447   -5.8865 C   0  0  0  0  0  0  0  0  0  0  0  0
   -2.0088    1.0132   -5.8220 C   0  0  0  0  0  0  0  0  0  0  0  0
   -2.1996   -0.0881   -6.6449 C   0  0  0  0  0  0  0  0  0  0  0  0
   -1.2226   -0.4064   -7.5873 C   0  0  0  0  0  0  0  0  0  0  0  0
   -3.2998   -0.8995   -6.6293 O   0  0  0  0  0  0  0  0  0  0  0  0
   -4.1456   -0.8155   -5.4765 C   0  0  2  0  0  0  0  0  0  0  0  0
   -4.3517    0.5856   -4.9550 C   0  0  0  0  0  0  0  0  0  0  0  0
   -5.4218    1.0269   -4.5604 O   0  0  0  0  0  0  0  0  0  0  0  0
   -3.0963    1.4294   -4.9268 C   0  0  0  0  0  0  0  0  0  0  0  0
   -3.0143    2.4285   -4.2302 O   0  0  0  0  0  0  0  0  0  0  0  0
   -3.6626   -1.7266   -4.3924 C   0  0  1  0  0  0  0  0  0  0  0  0
   -2.3399   -1.4616   -3.8620 O   0  0  0  0  0  0  0  0  0  0  0  0
   -4.6565   -2.0646   -3.4229 O   0  0  0  0  0  0  0  0  0  0  0  0
   -4.1746   -3.0802   -4.1678 C   0  0  0  0  0  0  0  0  0  0  0  0
   -3.5940   -4.0809   -3.8214 O   0  0  0  0  0  0  0  0  0  0  0  0
    3.5740    0.7283   -2.5507 C   0  0  0  0  0  0  0  0  0  0  0  0
    3.7242   -0.3122   -3.1701 O   0  0  0  0  0  0  0  0  0  0  0  0
    3.7808    0.7976   -1.0539 C   0  0  0  0  0  0  0  0  0  0  0  0
    4.3874   -0.0798   -0.4629 O   0  0  0  0  0  0  0  0  0  0  0  0
    3.2330    1.9998   -0.3075 C   0  0  0  0  0  0  0  0  0  0  0  0
    3.6444    2.3282    0.7915 O   0  0  0  0  0  0  0  0  0  0  0  0
  1  2  1  0  0  0  0
  2  3  2  0  0  0  0
  3  4  1  0  0  0  0
  3 50  1  0  0  0  0
  4  5  1  0  0  0  0
  5  6  1  6  0  0  0
  5 46  1  0  0  0  0
  6  7  1  0  0  0  0
  7  8  2  0  0  0  0
  7 12  1  0  0  0  0
  8  9  1  0  0  0  0
  8 25  1  0  0  0  0
  9 10  1  0  0  0  0
 10 11  2  0  0  0  0
 10 21  1  0  0  0  0
 11 12  1  0  0  0  0
 11 13  1  0  0  0  0
 13 14  2  0  0  0  0
 13 19  1  0  0  0  0
 14 15  1  0  0  0  0
 15 16  2  0  0  0  0
 15 17  1  0  0  0  0
 17 18  2  0  0  0  0
 18 19  1  0  0  0  0
 19 20  1  0  0  0  0
 20 21  1  0  0  0  0
 20 22  1  0  0  0  0
 22 23  1  0  0  0  0
 22 24  1  0  0  0  0
 23 24  1  0  0  0  0
 25 26  2  0  0  0  0
 25 30  1  0  0  0  0
 26 27  1  0  0  0  0
 27 28  2  0  0  0  0
 28 29  1  0  0  0  0
 29 30  2  0  0  0  0
 29 34  1  0  0  0  0
 30 31  1  0  0  0  0
 31 32  2  0  0  0  0
 32 33  1  0  0  0  0
 32 39  1  0  0  0  0
 33 34  2  0  0  0  0
 33 35  1  0  0  0  0
 36 35  1  6  0  0  0
 36 37  1  0  0  0  0
 36 41  1  0  0  0  0
 37 38  2  0  0  0  0
 37 39  1  0  0  0  0
 39 40  2  0  0  0  0
 41 42  1  1  0  0  0
 41 43  1  0  0  0  0
 41 44  1  0  0  0  0
 43 44  1  0  0  0  0
 44 45  2  0  0  0  0
 46 47  2  0  0  0  0
 46 48  1  0  0  0  0
 48 49  2  0  0  0  0
 48 50  1  0  0  0  0
 50 51  2  0  0  0  0
M  END
$$$$