
 OpenBabel11262001113D

 54 62  0  0  1  0  0  0  0  0999 V2000
   -0.9363   -4.0930   -2.7057 O   0  0  0  0  0  0  0  0  0  0  0  0
   -0.3875   -2.8482   -2.5107 C   0  0  0  0  0  0  0  0  0  0  0  0
    0.4959   -2.5943   -1.5384 C   0  0  0  0  0  0  0  0  0  0  0  0
    0.8565   -3.6066   -0.6708 O   0  0  0  0  0  0  0  0  0  0  0  0
    2.0402   -3.3837    0.0868 C   0  0  2  0  0  0  0  0  0  0  0  0
    2.1890   -4.4373    1.0769 O   0  0  0  0  0  0  0  0  0  0  0  0
    2.2599   -5.7471    0.5945 C   0  0  0  0  0  0  0  0  0  0  0  0
    1.8605   -6.8141    1.3326 C   0  0  0  0  0  0  0  0  0  0  0  0
    1.9809   -8.1278    0.8394 O   0  0  0  0  0  0  0  0  0  0  0  0
    2.5802   -8.3858   -0.3955 C   0  0  0  0  0  0  0  0  0  0  0  0
    3.0449   -7.3785   -1.1549 C   0  0  0  0  0  0  0  0  0  0  0  0
    2.8528   -5.9460   -0.7788 C   0  0  0  0  0  0  0  0  0  0  0  0
    3.8061   -7.6133   -2.4287 C   0  0  3  0  0  0  0  0  0  0  0  0
    5.1056   -7.0966   -2.2289 O   0  0  0  0  0  0  0  0  0  0  0  0
    6.0354   -7.3264   -3.1971 C   0  0  0  0  0  0  0  0  0  0  0  0
    7.0635   -6.6700   -3.2282 O   0  0  0  0  0  0  0  0  0  0  0  0
    5.7564   -8.3039   -4.0979 O   0  0  0  0  0  0  0  0  0  0  0  0
    4.8216   -9.2420   -3.8650 C   0  0  0  0  0  0  0  0  0  0  0  0
    4.6254  -10.1968   -4.6009 O   0  0  0  0  0  0  0  0  0  0  0  0
    3.9737   -9.0433   -2.6941 C   0  0  0  0  0  0  0  0  0  0  0  0
    3.4365  -10.0282   -1.9431 C   0  0  0  0  0  0  0  0  0  0  0  0
    2.7039   -9.7030   -0.8030 O   0  3  0  0  0  0  0  0  0  0  0  0
    3.6403  -11.4771   -2.1904 C   0  0  0  0  0  0  0  0  0  0  0  0
    4.7336  -12.1718   -1.5753 O   0  0  0  0  0  0  0  0  0  0  0  0
    3.3847  -12.4301   -1.1425 O   0  0  0  0  0  0  0  0  0  0  0  0
    1.2643   -6.7143    2.7148 C   0  0  0  0  0  0  0  0  0  0  0  0
    1.6689   -5.6733    3.5549 C   0  0  0  0  0  0  0  0  0  0  0  0
    1.1586   -5.5165    4.7791 N   0  3  0  0  0  0  0  0  0  0  0  0
    1.5630   -4.4725    5.5281 F   0  0  0  0  0  0  0  0  0  0  0  0
    0.2895   -6.3540    5.2959 N   0  0  0  0  0  0  0  0  0  0  0  0
   -0.1259   -7.3982    4.5822 C   0  0  0  0  0  0  0  0  0  0  0  0
    0.3227   -7.6334    3.2627 C   0  0  0  0  0  0  0  0  0  0  0  0
   -0.2162   -8.7637    2.5973 C   0  0  0  0  0  0  0  0  0  0  0  0
   -1.1180   -9.6346    3.2243 C   0  0  0  0  0  0  0  0  0  0  0  0
   -1.6350  -10.7955    2.4961 C   0  0  0  0  0  0  0  0  0  0  0  0
   -1.2719  -11.0293    1.3539 O   0  0  0  0  0  0  0  0  0  0  0  0
   -2.5812  -11.6831    3.2676 C   0  0  0  0  0  0  0  0  0  0  0  0
   -2.6088  -12.8830    3.0492 O   0  0  0  0  0  0  0  0  0  0  0  0
   -3.3690  -10.9463    4.3278 C   0  0  1  0  0  0  0  0  0  0  0  0
   -2.5121  -10.1245    5.1505 O   0  0  0  0  0  0  0  0  0  0  0  0
   -1.5542   -9.3884    4.5110 C   0  0  0  0  0  0  0  0  0  0  0  0
   -1.0397   -8.2748    5.1718 C   0  0  0  0  0  0  0  0  0  0  0  0
   -1.4631   -8.0130    6.4189 F   0  0  0  0  0  0  0  0  0  0  0  0
   -4.5353  -10.1923    3.7336 C   0  0  1  0  0  0  0  0  0  0  0  0
   -5.5100  -10.9914    3.0406 O   0  0  0  0  0  0  0  0  0  0  0  0
   -5.0678   -9.1234    4.5272 O   0  0  0  0  0  0  0  0  0  0  0  0
   -4.5046   -8.7876    3.3634 C   0  0  0  0  0  0  0  0  0  0  0  0
   -3.5850   -8.0356    3.0812 O   0  0  0  0  0  0  0  0  0  0  0  0
    1.9874   -2.0171    0.7659 C   0  0  3  0  0  0  0  0  0  0  0  0
    2.0436   -0.9490   -0.3093 C   0  0  3  0  0  0  0  0  0  0  0  0
    1.0476   -1.2016   -1.4192 C   0  0  0  0  0  0  0  0  0  0  0  0
    0.7752   -0.3443   -2.2571 O   0  0  0  0  0  0  0  0  0  0  0  0
    1.9056    0.2745    0.2718 F   0  0  0  0  0  0  0  0  0  0  0  0
    0.8240   -1.9242    1.4735 F   0  0  0  0  0  0  0  0  0  0  0  0
  1  2  1  0  0  0  0
  2  3  2  0  0  0  0
  3  4  1  0  0  0  0
  3 51  1  0  0  0  0
  4  5  1  0  0  0  0
  5  6  1  1  0  0  0
  5 49  1  0  0  0  0
  6  7  1  0  0  0  0
  7  8  2  0  0  0  0
  7 12  1  0  0  0  0
  8  9  1  0  0  0  0
  8 26  1  0  0  0  0
  9 10  1  0  0  0  0
 10 11  2  0  0  0  0
 10 22  1  0  0  0  0
 11 12  1  0  0  0  0
 11 13  1  0  0  0  0
 13 14  1  0  0  0  0
 13 20  1  0  0  0  0
 14 15  1  0  0  0  0
 15 16  2  0  0  0  0
 15 17  1  0  0  0  0
 17 18  1  0  0  0  0
 18 19  2  0  0  0  0
 18 20  1  0  0  0  0
 20 21  2  0  0  0  0
 21 22  1  0  0  0  0
 21 23  1  0  0  0  0
 23 24  1  0  0  0  0
 23 25  1  0  0  0  0
 24 25  1  0  0  0  0
 26 27  2  0  0  0  0
 26 32  1  0  0  0  0
 27 28  1  0  0  0  0
 28 29  1  0  0  0  0
 28 30  2  0  0  0  0
 30 31  1  0  0  0  0
 31 32  2  0  0  0  0
 31 42  1  0  0  0  0
 32 33  1  0  0  0  0
 33 34  2  0  0  0  0
 34 35  1  0  0  0  0
 34 41  1  0  0  0  0
 35 36  2  0  0  0  0
 35 37  1  0  0  0  0
 37 38  2  0  0  0  0
 39 37  1  6  0  0  0
 39 40  1  0  0  0  0
 39 44  1  0  0  0  0
 40 41  1  0  0  0  0
 41 42  2  0  0  0  0
 42 43  1  0  0  0  0
 44 45  1  6  0  0  0
 44 46  1  0  0  0  0
 44 47  1  0  0  0  0
 46 47  1  0  0  0  0
 47 48  2  0  0  0  0
 49 50  1  0  0  0  0
 49 54  1  0  0  0  0
 50 51  1  0  0  0  0
 50 53  1  0  0  0  0
 51 52  2  0  0  0  0
M  CHG  2  22   1  28   1
M  END
$$$$