
 OpenBabel09212009273D

 48 55  0  0  1  0  0  0  0  0999 V2000
    8.3788    0.4540   -0.5767 O   0  0  0  0  0  0  0  0  0  0  0  0
    8.5940    0.9546    0.7435 C   0  0  0  0  0  0  0  0  0  0  0  0
    7.2705    1.0029    1.5224 C   0  0  2  0  0  0  0  0  0  0  0  0
    6.6818   -0.3546    1.5841 N   0  0  0  0  0  0  0  0  0  0  0  0
    5.3009   -0.3457    2.0743 C   0  0  2  0  0  0  0  0  0  0  0  0
    4.8951   -1.6600    2.4612 O   0  0  0  0  0  0  0  0  0  0  0  0
    5.0361   -2.0235    3.7978 C   0  0  0  0  0  0  0  0  0  0  0  0
    5.2491   -3.3053    4.1726 C   0  0  0  0  0  0  0  0  0  0  0  0
    5.3843   -3.7114    5.5015 O   0  0  0  0  0  0  0  0  0  0  0  0
    5.0969   -2.8136    6.5115 C   0  0  0  0  0  0  0  0  0  0  0  0
    4.7607   -1.5042    6.2399 C   0  0  0  0  0  0  0  0  0  0  0  0
    4.8002   -0.9759    4.8490 C   0  0  0  0  0  0  0  0  0  0  0  0
    4.4062   -0.6958    7.3194 C   0  0  0  0  0  0  0  0  0  0  0  0
    4.0284    0.6248    7.0431 O   0  0  0  0  0  0  0  0  0  0  0  0
    3.7601    1.5261    8.0509 C   0  0  0  0  0  0  0  0  0  0  0  0
    3.4655    2.7405    7.7600 N   0  0  0  0  0  0  0  0  0  0  0  0
    3.8339    1.1216    9.3307 O   0  0  0  0  0  0  0  0  0  0  0  0
    3.9691   -0.2567    9.7038 C   0  0  0  0  0  0  0  0  0  0  0  0
    4.3954   -1.1668    8.6139 C   0  0  0  0  0  0  0  0  0  0  0  0
    4.7600   -2.4940    8.7784 C   0  0  0  0  0  0  0  0  0  0  0  0
    5.1142   -3.3136    7.7650 N   0  0  0  0  0  0  0  0  0  0  0  0
    4.7810   -3.1035    9.9972 O   0  0  0  0  0  0  0  0  0  0  0  0
    5.3607   -4.4221    3.2059 C   0  0  0  0  0  0  0  0  0  0  0  0
    6.6246   -4.6340    2.7497 N   0  0  0  0  0  0  0  0  0  0  0  0
    6.8031   -5.6420    1.8719 C   0  0  0  0  0  0  0  0  0  0  0  0
    5.7907   -6.4743    1.4305 C   0  0  0  0  0  0  0  0  0  0  0  0
    4.4970   -6.2795    1.9131 C   0  0  0  0  0  0  0  0  0  0  0  0
    4.2440   -5.2178    2.8138 C   0  0  0  0  0  0  0  0  0  0  0  0
    2.9021   -5.0386    3.2296 C   0  0  0  0  0  0  0  0  0  0  0  0
    1.8895   -5.9171    2.8038 C   0  0  0  0  0  0  0  0  0  0  0  0
    2.1567   -7.0089    1.9830 C   0  0  0  0  0  0  0  0  0  0  0  0
    3.4590   -7.1409    1.4991 C   0  0  0  0  0  0  0  0  0  0  0  0
    1.1530   -7.8686    1.5346 N   0  0  0  0  0  0  0  0  0  0  0  0
   -0.0023   -8.1078    2.4257 C   0  0  2  0  0  0  0  0  0  0  0  0
   -0.4288   -6.8957    3.2242 C   0  0  0  0  0  0  0  0  0  0  0  0
   -1.4041   -6.9012    3.9719 O   0  0  0  0  0  0  0  0  0  0  0  0
    0.4981   -5.6989    3.2152 C   0  0  0  0  0  0  0  0  0  0  0  0
    0.1072   -4.6089    3.6012 O   0  0  0  0  0  0  0  0  0  0  0  0
    0.1973   -9.3061    3.3536 C   0  0  1  0  0  0  0  0  0  0  0  0
   -0.8900   -9.6149    4.2484 O   0  0  0  0  0  0  0  0  0  0  0  0
    0.7614  -10.4484    2.6843 O   0  0  0  0  0  0  0  0  0  0  0  0
    1.5407   -9.8842    3.7450 C   0  0  0  0  0  0  0  0  0  0  0  0
    4.4220    0.2196    0.9655 C   0  0  0  0  0  0  0  0  0  0  0  0
    3.2709   -0.1323    0.7057 O   0  0  0  0  0  0  0  0  0  0  0  0
    5.0392    1.4294    0.2996 C   0  0  0  0  0  0  0  0  0  0  0  0
    4.4554    2.0650   -0.5728 O   0  0  0  0  0  0  0  0  0  0  0  0
    6.3397    1.9814    0.8306 C   0  0  0  0  0  0  0  0  0  0  0  0
    6.5955    3.2573    0.7719 N   0  0  0  0  0  0  0  0  0  0  0  0
  1  2  1  0  0  0  0
  3  4  1  0  0  0  0
  3 47  1  0  0  0  0
  3  2  1  6  0  0  0
  4  5  1  0  0  0  0
  5  6  1  6  0  0  0
  5 43  1  0  0  0  0
  6  7  1  0  0  0  0
  7  8  2  0  0  0  0
  7 12  1  0  0  0  0
  8  9  1  0  0  0  0
  8 23  1  0  0  0  0
  9 10  1  0  0  0  0
 10 11  2  0  0  0  0
 10 21  1  0  0  0  0
 11 12  1  0  0  0  0
 11 13  1  0  0  0  0
 13 14  1  0  0  0  0
 13 19  2  0  0  0  0
 14 15  1  0  0  0  0
 15 16  2  0  0  0  0
 15 17  1  0  0  0  0
 17 18  1  0  0  0  0
 18 19  1  0  0  0  0
 19 20  1  0  0  0  0
 20 21  2  0  0  0  0
 20 22  1  0  0  0  0
 23 24  2  0  0  0  0
 23 28  1  0  0  0  0
 24 25  1  0  0  0  0
 25 26  2  0  0  0  0
 26 27  1  0  0  0  0
 27 28  2  0  0  0  0
 27 32  1  0  0  0  0
 28 29  1  0  0  0  0
 29 30  2  0  0  0  0
 30 31  1  0  0  0  0
 30 37  1  0  0  0  0
 31 32  2  0  0  0  0
 31 33  1  0  0  0  0
 34 33  1  1  0  0  0
 34 35  1  0  0  0  0
 34 39  1  0  0  0  0
 35 36  2  0  0  0  0
 35 37  1  0  0  0  0
 37 38  2  0  0  0  0
 39 40  1  1  0  0  0
 39 41  1  0  0  0  0
 39 42  1  0  0  0  0
 41 42  1  0  0  0  0
 43 44  2  0  0  0  0
 43 45  1  0  0  0  0
 45 46  2  0  0  0  0
 45 47  1  0  0  0  0
 47 48  2  0  0  0  0
M  END
$$$$