
 OpenBabel11212021143D

 53 61  0  0  1  0  0  0  0  0999 V2000
   -1.4532   -1.2368    5.4572 O   0  0  0  0  0  0  0  0  0  0  0  0
   -1.1062   -1.5219    4.1612 C   0  0  0  0  0  0  0  0  0  0  0  0
   -0.2469   -0.7701    3.4613 C   0  0  0  0  0  0  0  0  0  0  0  0
    0.3226    0.3651    4.0166 O   0  0  0  0  0  0  0  0  0  0  0  0
    1.6885    0.5263    3.6517 C   0  0  2  0  0  0  0  0  0  0  0  0
    2.3091    1.6046    4.3702 O   0  0  0  0  0  0  0  0  0  0  0  0
    2.5216    1.4590    5.7356 C   0  0  0  0  0  0  0  0  0  0  0  0
    3.1373    2.4413    6.4281 C   0  0  0  0  0  0  0  0  0  0  0  0
    3.4569    2.3465    7.7760 O   0  0  0  0  0  0  0  0  0  0  0  0
    3.3179    1.1209    8.4168 C   0  0  0  0  0  0  0  0  0  0  0  0
    2.7102    0.0866    7.8159 C   0  0  0  0  0  0  0  0  0  0  0  0
    2.1297    0.1737    6.4413 C   0  0  0  0  0  0  0  0  0  0  0  0
    2.7163   -1.2290    8.5212 C   0  0  0  0  0  0  0  0  0  0  0  0
    2.1804   -2.2771    7.9781 N   0  0  0  0  0  0  0  0  0  0  0  0
    2.2696   -3.4439    8.6840 C   0  0  0  0  0  0  0  0  0  0  0  0
    1.6743   -4.4430    8.1482 N   0  0  0  0  0  0  0  0  0  0  0  0
    2.9153   -3.6613    9.8644 N   0  0  0  0  0  0  0  0  0  0  0  0
    3.4572   -2.6364   10.4285 C   0  0  0  0  0  0  0  0  0  0  0  0
    3.4032   -1.2910    9.8364 C   0  0  0  0  0  0  0  0  0  0  0  0
    3.9554   -0.1848   10.3674 C   0  0  0  0  0  0  0  0  0  0  0  0
    3.8761    1.0110    9.6602 N   0  0  0  0  0  0  0  0  0  0  0  0
    4.6845   -0.1463   11.6552 C   0  0  0  0  0  0  0  0  0  0  0  0
    6.0964   -0.4410   11.7172 O   0  0  0  0  0  0  0  0  0  0  0  0
    5.6292    0.9047   11.9616 O   0  0  0  0  0  0  0  0  0  0  0  0
    3.6581    3.6666    5.8040 C   0  0  0  0  0  0  0  0  0  0  0  0
    4.9755    3.6283    5.3677 C   0  0  0  0  0  0  0  0  0  0  0  0
    5.5393    4.7055    4.8222 N   0  3  0  0  0  0  0  0  0  0  0  0
    6.8196    4.6379    4.4121 F   0  0  0  0  0  0  0  0  0  0  0  0
    4.8938    5.8437    4.6747 N   0  0  0  0  0  0  0  0  0  0  0  0
    3.6053    5.9436    5.0355 C   0  0  0  0  0  0  0  0  0  0  0  0
    2.9286    4.8565    5.6258 C   0  0  0  0  0  0  0  0  0  0  0  0
    1.5701    5.0040    5.9895 C   0  0  0  0  0  0  0  0  0  0  0  0
    0.8738    6.1833    5.6983 C   0  0  0  0  0  0  0  0  0  0  0  0
   -0.5635    6.2819    5.9841 C   0  0  0  0  0  0  0  0  0  0  0  0
   -1.1631    5.3847    6.5518 O   0  0  0  0  0  0  0  0  0  0  0  0
   -1.2601    7.5382    5.5177 C   0  0  0  0  0  0  0  0  0  0  0  0
   -2.3090    7.9012    6.0282 O   0  0  0  0  0  0  0  0  0  0  0  0
   -0.5420    8.2601    4.4051 C   0  0  1  0  0  0  0  0  0  0  0  0
    0.8692    8.3768    4.6667 O   0  0  0  0  0  0  0  0  0  0  0  0
    1.5211    7.2444    5.0854 C   0  0  0  0  0  0  0  0  0  0  0  0
    2.8931    7.1333    4.8094 C   0  0  0  0  0  0  0  0  0  0  0  0
    3.8084    8.6225    4.0264 Br  0  0  0  0  0  0  0  0  0  0  0  0
   -0.8692    7.6927    3.0421 C   0  0  1  0  0  0  0  0  0  0  0  0
   -2.2630    7.6956    2.6775 O   0  0  0  0  0  0  0  0  0  0  0  0
    0.0183    8.0795    1.9808 O   0  0  0  0  0  0  0  0  0  0  0  0
   -0.0202    6.7789    2.2966 C   0  0  0  0  0  0  0  0  0  0  0  0
    0.8531    6.0008    2.6296 O   0  0  0  0  0  0  0  0  0  0  0  0
    1.7771    0.8125    2.1637 C   0  0  0  0  0  0  0  0  0  0  0  0
    2.4348    1.7105    1.6459 O   0  0  0  0  0  0  0  0  0  0  0  0
    1.0218   -0.2155    1.3492 C   0  0  0  0  0  0  0  0  0  0  0  0
    1.2069   -0.3011    0.1446 O   0  0  0  0  0  0  0  0  0  0  0  0
    0.0874   -1.1784    2.0652 C   0  0  0  0  0  0  0  0  0  0  0  0
   -0.2873   -2.2169    1.5485 O   0  0  0  0  0  0  0  0  0  0  0  0
  1  2  1  0  0  0  0
  2  3  2  0  0  0  0
  3  4  1  0  0  0  0
  3 52  1  0  0  0  0
  4  5  1  0  0  0  0
  5  6  1  1  0  0  0
  5 48  1  0  0  0  0
  6  7  1  0  0  0  0
  7  8  2  0  0  0  0
  7 12  1  0  0  0  0
  8  9  1  0  0  0  0
  8 25  1  0  0  0  0
  9 10  1  0  0  0  0
 10 11  2  0  0  0  0
 10 21  1  0  0  0  0
 11 12  1  0  0  0  0
 11 13  1  0  0  0  0
 13 14  2  0  0  0  0
 13 19  1  0  0  0  0
 14 15  1  0  0  0  0
 15 16  2  0  0  0  0
 15 17  1  0  0  0  0
 17 18  2  0  0  0  0
 18 19  1  0  0  0  0
 19 20  2  0  0  0  0
 20 21  1  0  0  0  0
 20 22  1  0  0  0  0
 22 23  1  0  0  0  0
 22 24  1  0  0  0  0
 23 24  1  0  0  0  0
 25 26  2  0  0  0  0
 25 31  1  0  0  0  0
 26 27  1  0  0  0  0
 27 28  1  0  0  0  0
 27 29  2  0  0  0  0
 29 30  1  0  0  0  0
 30 31  2  0  0  0  0
 30 41  1  0  0  0  0
 31 32  1  0  0  0  0
 32 33  2  0  0  0  0
 33 34  1  0  0  0  0
 33 40  1  0  0  0  0
 34 35  2  0  0  0  0
 34 36  1  0  0  0  0
 36 37  2  0  0  0  0
 38 36  1  1  0  0  0
 38 39  1  0  0  0  0
 38 43  1  0  0  0  0
 39 40  1  0  0  0  0
 40 41  2  0  0  0  0
 41 42  1  0  0  0  0
 43 44  1  6  0  0  0
 43 45  1  0  0  0  0
 43 46  1  0  0  0  0
 45 46  1  0  0  0  0
 46 47  2  0  0  0  0
 48 49  2  0  0  0  0
 48 50  1  0  0  0  0
 50 51  2  0  0  0  0
 50 52  1  0  0  0  0
 52 53  2  0  0  0  0
M  CHG  1  27   1
M  END
$$$$