
 OpenBabel11232015213D

 53 61  0  0  1  0  0  0  0  0999 V2000
   -0.0876   -3.0210   -6.0632 O   0  0  0  0  0  0  0  0  0  0  0  0
    1.1436   -3.3156   -6.5914 C   0  0  0  0  0  0  0  0  0  0  0  0
    2.1669   -2.4572   -6.5243 C   0  0  0  0  0  0  0  0  0  0  0  0
    1.9884   -1.2082   -5.9596 O   0  0  0  0  0  0  0  0  0  0  0  0
    3.0612   -0.7521   -5.1573 C   0  0  2  0  0  0  0  0  0  0  0  0
    2.7954    0.5635   -4.5865 O   0  0  0  0  0  0  0  0  0  0  0  0
    2.6082    1.6517   -5.4371 C   0  0  0  0  0  0  0  0  0  0  0  0
    2.9701    2.9016   -5.0663 C   0  0  0  0  0  0  0  0  0  0  0  0
    2.8221    4.0244   -5.8970 O   0  0  0  0  0  0  0  0  0  0  0  0
    2.2786    3.8678   -7.1768 C   0  0  0  0  0  0  0  0  0  0  0  0
    1.8462    2.6701   -7.5908 C   0  0  0  0  0  0  0  0  0  0  0  0
    1.9160    1.4333   -6.7598 C   0  0  0  0  0  0  0  0  0  0  0  0
    1.3352    2.5379   -8.9743 C   0  0  0  0  0  0  0  0  0  0  0  0
    0.8839    1.4042   -9.3958 N   0  0  0  0  0  0  0  0  0  0  0  0
    0.4484    1.3352  -10.6835 C   0  0  0  0  0  0  0  0  0  0  0  0
   -0.0089    0.2052  -11.0553 N   0  0  0  0  0  0  0  0  0  0  0  0
    0.4631    2.3449  -11.6006 N   0  0  0  0  0  0  0  0  0  0  0  0
    0.9280    3.4767  -11.2206 C   0  0  0  0  0  0  0  0  0  0  0  0
    1.3847    3.7501   -9.8433 C   0  0  0  0  0  0  0  0  0  0  0  0
    1.8113    4.9372   -9.3401 C   0  0  0  0  0  0  0  0  0  0  0  0
    2.2261    4.9921   -8.0008 N   0  0  0  0  0  0  0  0  0  0  0  0
    1.8930    6.1916  -10.1210 C   0  0  0  0  0  0  0  0  0  0  0  0
    1.0843    7.3694   -9.6819 N   0  3  0  0  0  0  0  0  0  0  0  0
    0.6414    6.8779  -10.5708 N   0  3  0  0  0  0  0  0  0  0  0  0
    3.5426    3.2022   -3.7333 C   0  0  0  0  0  0  0  0  0  0  0  0
    4.9227    3.1320   -3.5646 C   0  0  0  0  0  0  0  0  0  0  0  0
    5.4788    3.4279   -2.3834 N   0  3  0  0  0  0  0  0  0  0  0  0
    6.8195    3.3865   -2.2589 F   0  0  0  0  0  0  0  0  0  0  0  0
    4.7666    3.7839   -1.3301 N   0  0  0  0  0  0  0  0  0  0  0  0
    3.4340    3.8448   -1.4136 C   0  0  0  0  0  0  0  0  0  0  0  0
    2.7549    3.5580   -2.6124 C   0  0  0  0  0  0  0  0  0  0  0  0
    1.3410    3.6519   -2.6177 C   0  0  0  0  0  0  0  0  0  0  0  0
    0.6298    4.0452   -1.4700 C   0  0  0  0  0  0  0  0  0  0  0  0
   -0.8240    4.2080   -1.5276 C   0  0  0  0  0  0  0  0  0  0  0  0
   -1.4220    4.0505   -2.5806 O   0  0  0  0  0  0  0  0  0  0  0  0
   -1.5238    4.6267   -0.2563 C   0  0  0  0  0  0  0  0  0  0  0  0
   -2.7271    4.4567   -0.1355 O   0  0  0  0  0  0  0  0  0  0  0  0
   -0.6311    5.3003    0.7642 C   0  0  1  0  0  0  0  0  0  0  0  0
    0.6956    4.7524    0.8550 O   0  0  0  0  0  0  0  0  0  0  0  0
    1.2979    4.3313   -0.2955 C   0  0  0  0  0  0  0  0  0  0  0  0
    2.6907    4.2148   -0.2874 C   0  0  0  0  0  0  0  0  0  0  0  0
    3.3533    4.5108    0.8428 F   0  0  0  0  0  0  0  0  0  0  0  0
   -0.6270    6.8006    0.5855 C   0  0  1  0  0  0  0  0  0  0  0  0
   -1.8886    7.4735    0.7444 O   0  0  0  0  0  0  0  0  0  0  0  0
    0.5111    7.5019    1.1112 O   0  0  0  0  0  0  0  0  0  0  0  0
    0.3590    7.5003   -0.2186 C   0  0  0  0  0  0  0  0  0  0  0  0
    1.0862    7.1223   -1.1223 O   0  0  0  0  0  0  0  0  0  0  0  0
    4.4133   -0.7577   -5.8608 C   0  0  0  0  0  0  0  0  0  0  0  0
    5.2529    0.1309   -5.7462 O   0  0  0  0  0  0  0  0  0  0  0  0
    4.6303   -1.9533   -6.7583 C   0  0  0  0  0  0  0  0  0  0  0  0
    5.7511   -2.1613   -7.1956 O   0  0  0  0  0  0  0  0  0  0  0  0
    3.4683   -2.8536   -7.1296 C   0  0  0  0  0  0  0  0  0  0  0  0
    3.6091   -3.8009   -7.8827 O   0  0  0  0  0  0  0  0  0  0  0  0
  1  2  1  0  0  0  0
  2  3  2  0  0  0  0
  3  4  1  0  0  0  0
  3 52  1  0  0  0  0
  4  5  1  0  0  0  0
  5  6  1  6  0  0  0
  5 48  1  0  0  0  0
  6  7  1  0  0  0  0
  7  8  2  0  0  0  0
  7 12  1  0  0  0  0
  8  9  1  0  0  0  0
  8 25  1  0  0  0  0
  9 10  1  0  0  0  0
 10 11  2  0  0  0  0
 10 21  1  0  0  0  0
 11 12  1  0  0  0  0
 11 13  1  0  0  0  0
 13 14  2  0  0  0  0
 13 19  1  0  0  0  0
 14 15  1  0  0  0  0
 15 16  2  0  0  0  0
 15 17  1  0  0  0  0
 17 18  2  0  0  0  0
 18 19  1  0  0  0  0
 19 20  2  0  0  0  0
 20 21  1  0  0  0  0
 20 22  1  0  0  0  0
 22 23  1  0  0  0  0
 22 24  1  0  0  0  0
 23 24  3  0  0  0  0
 25 26  2  0  0  0  0
 25 31  1  0  0  0  0
 26 27  1  0  0  0  0
 27 28  1  0  0  0  0
 27 29  2  0  0  0  0
 29 30  1  0  0  0  0
 30 31  2  0  0  0  0
 30 41  1  0  0  0  0
 31 32  1  0  0  0  0
 32 33  2  0  0  0  0
 33 34  1  0  0  0  0
 33 40  1  0  0  0  0
 34 35  2  0  0  0  0
 34 36  1  0  0  0  0
 36 37  2  0  0  0  0
 38 36  1  6  0  0  0
 38 39  1  0  0  0  0
 38 43  1  0  0  0  0
 39 40  1  0  0  0  0
 40 41  2  0  0  0  0
 41 42  1  0  0  0  0
 43 44  1  1  0  0  0
 43 45  1  0  0  0  0
 43 46  1  0  0  0  0
 45 46  1  0  0  0  0
 46 47  2  0  0  0  0
 48 49  2  0  0  0  0
 48 50  1  0  0  0  0
 50 51  2  0  0  0  0
 50 52  1  0  0  0  0
 52 53  2  0  0  0  0
M  CHG  3  23   1  24   1  27   1
M  END
$$$$