
 OpenBabel11252022313D

 54 62  0  0  1  0  0  0  0  0999 V2000
    1.8378    6.7478    2.9767 O   0  0  0  0  0  0  0  0  0  0  0  0
    0.6281    6.2406    2.5750 C   0  0  0  0  0  0  0  0  0  0  0  0
    0.3592    4.9301    2.5885 C   0  0  0  0  0  0  0  0  0  0  0  0
    1.3230    4.0175    2.9929 O   0  0  0  0  0  0  0  0  0  0  0  0
    0.7928    2.9430    3.7407 C   0  0  2  0  0  0  0  0  0  0  0  0
    1.8374    1.9827    4.0627 O   0  0  0  0  0  0  0  0  0  0  0  0
    2.4986    2.1200    5.2644 C   0  0  0  0  0  0  0  0  0  0  0  0
    2.9780    1.0298    5.8999 C   0  0  0  0  0  0  0  0  0  0  0  0
    3.5834    1.0918    7.1539 O   0  0  0  0  0  0  0  0  0  0  0  0
    3.6027    2.3178    7.8269 C   0  0  0  0  0  0  0  0  0  0  0  0
    3.2342    3.4638    7.2255 C   0  0  0  0  0  0  0  0  0  0  0  0
    2.7260    3.5056    5.8234 C   0  0  0  0  0  0  0  0  0  0  0  0
    3.2761    4.7869    7.9629 C   0  0  3  0  0  0  0  0  0  0  0  0
    1.9567    5.3242    7.9106 O   0  0  0  0  0  0  0  0  0  0  0  0
    1.5627    6.3273    8.7354 C   0  0  0  0  0  0  0  0  0  0  0  0
    0.4864    6.8813    8.5622 O   0  0  0  0  0  0  0  0  0  0  0  0
    2.3700    6.6350    9.7779 O   0  0  0  0  0  0  0  0  0  0  0  0
    3.6210    6.0043   10.0225 C   0  0  3  0  0  0  0  0  0  0  0  0
    3.6765    4.6694    9.3849 C   0  0  0  0  0  0  0  0  0  0  0  0
    4.0096    3.4833    9.9398 C   0  0  0  0  0  0  0  0  0  0  0  0
    3.9848    2.3355    9.1458 N   0  0  0  0  0  0  0  0  0  0  0  0
    4.4074    3.3084   11.3565 C   0  0  0  0  0  0  0  0  0  0  0  0
    5.3187    2.2736   11.7621 O   0  0  0  0  0  0  0  0  0  0  0  0
    5.7205    3.6569   11.8175 O   0  0  0  0  0  0  0  0  0  0  0  0
    4.6550    6.7949    9.4650 O   0  0  0  0  0  0  0  0  0  0  0  0
    2.9531   -0.3177    5.2742 C   0  0  0  0  0  0  0  0  0  0  0  0
    4.0577   -0.7074    4.5112 C   0  0  0  0  0  0  0  0  0  0  0  0
    4.0555   -1.8898    3.8925 N   0  3  0  0  0  0  0  0  0  0  0  0
    5.1248   -2.2516    3.1532 F   0  0  0  0  0  0  0  0  0  0  0  0
    3.0330   -2.7170    3.9612 N   0  0  0  0  0  0  0  0  0  0  0  0
    1.9579   -2.3778    4.7035 C   0  0  0  0  0  0  0  0  0  0  0  0
    1.8862   -1.1710    5.3872 N   0  3  0  0  0  0  0  0  0  0  0  0
    0.7956   -0.8912    6.1504 C   0  0  0  0  0  0  0  0  0  0  0  0
   -0.1992   -1.8344    6.3683 C   0  0  0  0  0  0  0  0  0  0  0  0
   -1.2253   -1.5704    7.3629 C   0  0  0  0  0  0  0  0  0  0  0  0
   -1.2802   -0.4627    7.8677 O   0  0  0  0  0  0  0  0  0  0  0  0
   -2.0857   -2.7279    7.8116 C   0  0  0  0  0  0  0  0  0  0  0  0
   -2.8890   -2.5771    8.7202 O   0  0  0  0  0  0  0  0  0  0  0  0
   -1.7080   -4.0734    7.2300 C   0  0  1  0  0  0  0  0  0  0  0  0
   -1.0955   -4.0223    5.9230 O   0  0  0  0  0  0  0  0  0  0  0  0
   -0.1677   -3.0380    5.7116 C   0  0  0  0  0  0  0  0  0  0  0  0
    0.8651   -3.2842    4.7937 C   0  0  0  0  0  0  0  0  0  0  0  0
    0.9157   -4.5594    4.1797 N   0  0  0  0  0  0  0  0  0  0  0  0
   -0.8854   -4.8509    8.2388 C   0  0  1  0  0  0  0  0  0  0  0  0
   -1.5259   -5.1807    9.4854 O   0  0  0  0  0  0  0  0  0  0  0  0
   -0.0317   -5.8817    7.6788 O   0  0  0  0  0  0  0  0  0  0  0  0
    0.5683   -4.8476    8.2717 C   0  0  0  0  0  0  0  0  0  0  0  0
    1.3642   -4.0164    7.8440 O   0  0  0  0  0  0  0  0  0  0  0  0
   -0.1753    2.1224    2.9204 C   0  0  0  0  0  0  0  0  0  0  0  0
   -0.1798    0.8939    2.8929 O   0  0  0  0  0  0  0  0  0  0  0  0
   -1.1773    2.9689    2.1741 C   0  0  0  0  0  0  0  0  0  0  0  0
   -2.1279    2.4228    1.6406 O   0  0  0  0  0  0  0  0  0  0  0  0
   -0.9891    4.4762    2.1309 C   0  0  0  0  0  0  0  0  0  0  0  0
   -1.8875    5.2231    1.7887 O   0  0  0  0  0  0  0  0  0  0  0  0
  1  2  1  0  0  0  0
  2  3  2  0  0  0  0
  3  4  1  0  0  0  0
  3 53  1  0  0  0  0
  4  5  1  0  0  0  0
  5  6  1  6  0  0  0
  5 49  1  0  0  0  0
  6  7  1  0  0  0  0
  7  8  2  0  0  0  0
  7 12  1  0  0  0  0
  8  9  1  0  0  0  0
  8 26  1  0  0  0  0
  9 10  1  0  0  0  0
 10 11  2  0  0  0  0
 10 21  1  0  0  0  0
 11 12  1  0  0  0  0
 11 13  1  0  0  0  0
 13 14  1  0  0  0  0
 13 19  1  0  0  0  0
 14 15  1  0  0  0  0
 15 16  2  0  0  0  0
 15 17  1  0  0  0  0
 17 18  1  0  0  0  0
 18 19  1  0  0  0  0
 18 25  1  0  0  0  0
 19 20  2  0  0  0  0
 20 21  1  0  0  0  0
 20 22  1  0  0  0  0
 22 23  1  0  0  0  0
 22 24  1  0  0  0  0
 23 24  1  0  0  0  0
 26 27  2  0  0  0  0
 26 32  1  0  0  0  0
 27 28  1  0  0  0  0
 28 29  1  0  0  0  0
 28 30  2  0  0  0  0
 30 31  1  0  0  0  0
 31 32  2  0  0  0  0
 31 42  1  0  0  0  0
 32 33  1  0  0  0  0
 33 34  2  0  0  0  0
 34 35  1  0  0  0  0
 34 41  1  0  0  0  0
 35 36  2  0  0  0  0
 35 37  1  0  0  0  0
 37 38  2  0  0  0  0
 39 37  1  1  0  0  0
 39 40  1  0  0  0  0
 39 44  1  0  0  0  0
 40 41  1  0  0  0  0
 41 42  2  0  0  0  0
 42 43  1  0  0  0  0
 44 45  1  1  0  0  0
 44 46  1  0  0  0  0
 44 47  1  0  0  0  0
 46 47  1  0  0  0  0
 47 48  2  0  0  0  0
 49 50  2  0  0  0  0
 49 51  1  0  0  0  0
 51 52  2  0  0  0  0
 51 53  1  0  0  0  0
 53 54  2  0  0  0  0
M  CHG  2  28   1  32   1
M  END
$$$$