
 OpenBabel09212022013D

 49 57  0  0  1  0  0  0  0  0999 V2000
    2.7758   -0.3040    0.3914 O   0  0  0  0  0  0  0  0  0  0  0  0
    3.6217   -0.5354   -0.4662 C   0  0  0  0  0  0  0  0  0  0  0  0
    3.8633   -1.7886   -0.9135 N   0  0  0  0  0  0  0  0  0  0  0  0
    4.7596   -2.1265   -1.9970 C   0  0  0  0  0  0  0  0  0  0  0  0
    5.5962   -0.9827   -2.4504 C   0  0  0  0  0  0  0  0  0  0  0  0
    5.3714    0.2915   -1.9536 C   0  0  0  0  0  0  0  0  0  0  0  0
    4.3650    0.4679   -0.9978 N   0  0  0  0  0  0  0  0  0  0  0  0
    6.1374    1.3700   -2.4007 C   0  0  0  0  0  0  0  0  0  0  0  0
    5.9239    2.7573   -1.8952 C   0  0  0  0  0  0  0  0  0  0  0  0
    7.0184    3.7151   -2.2519 C   0  0  0  0  0  0  0  0  0  0  0  0
    7.9210    3.3507   -3.1891 C   0  0  0  0  0  0  0  0  0  0  0  0
    7.9299    2.1165   -3.8290 O   0  0  0  0  0  0  0  0  0  0  0  0
    7.1135    1.1159   -3.3525 C   0  0  0  0  0  0  0  0  0  0  0  0
    7.3536   -0.1087   -3.8681 N   0  0  0  0  0  0  0  0  0  0  0  0
    6.5882   -1.1071   -3.4010 C   0  0  0  0  0  0  0  0  0  0  0  0
    6.8680   -2.3059   -3.9691 O   0  0  0  0  0  0  0  0  0  0  0  0
    9.0388    4.2074   -3.6119 C   0  0  0  0  0  0  0  0  0  0  0  0
    8.7863    4.9551   -4.7165 N   0  0  0  0  0  0  0  0  0  0  0  0
    9.7669    5.7718   -5.1430 C   0  0  0  0  0  0  0  0  0  0  0  0
   11.0101    5.8591   -4.5419 C   0  0  0  0  0  0  0  0  0  0  0  0
   11.2972    5.0276   -3.4541 C   0  0  0  0  0  0  0  0  0  0  0  0
   10.2847    4.1877   -2.9402 C   0  0  0  0  0  0  0  0  0  0  0  0
   10.5868    3.3875   -1.8102 C   0  0  0  0  0  0  0  0  0  0  0  0
   11.8668    3.3961   -1.2453 C   0  0  0  0  0  0  0  0  0  0  0  0
   12.8674    4.1932   -1.7856 C   0  0  0  0  0  0  0  0  0  0  0  0
   12.5811    5.0103   -2.8788 C   0  0  0  0  0  0  0  0  0  0  0  0
   14.1525    4.2326   -1.3201 O   0  0  0  0  0  0  0  0  0  0  0  0
   14.3115    3.9204    0.0658 C   0  0  2  0  0  0  0  0  0  0  0  0
   13.5338    2.7191    0.5462 C   0  0  0  0  0  0  0  0  0  0  0  0
   13.9154    1.9760    1.4395 O   0  0  0  0  0  0  0  0  0  0  0  0
   12.1600    2.5717   -0.0660 C   0  0  0  0  0  0  0  0  0  0  0  0
   11.3235    1.8448    0.4454 O   0  0  0  0  0  0  0  0  0  0  0  0
   14.1004    5.1547    0.8830 C   0  0  1  0  0  0  0  0  0  0  0  0
   12.7671    5.7057    0.7702 O   0  0  0  0  0  0  0  0  0  0  0  0
   13.1822    5.3192    1.9781 C   0  0  0  0  0  0  0  0  0  0  0  0
   13.2387    5.9430    3.0217 O   0  0  0  0  0  0  0  0  0  0  0  0
    7.0706    4.9527   -1.6128 O   0  0  0  0  0  0  0  0  0  0  0  0
    6.5776    5.0422   -0.2680 C   0  0  1  0  0  0  0  0  0  0  0  0
    7.3046    4.1794    0.6137 O   0  0  0  0  0  0  0  0  0  0  0  0
    6.6513    3.9734    1.8699 C   0  0  1  0  0  0  0  0  0  0  0  0
    7.4959    3.0631    2.7086 C   0  0  0  0  0  0  0  0  0  0  0  0
    7.6110    1.7260    2.2206 O   0  0  0  0  0  0  0  0  0  0  0  0
    6.7920    2.0161    3.3773 O   0  0  0  0  0  0  0  0  0  0  0  0
    6.3930    5.2722    2.6068 C   0  0  0  0  0  0  0  0  0  0  0  0
    5.9710    5.3419    3.7518 O   0  0  0  0  0  0  0  0  0  0  0  0
    6.6503    6.5215    1.7928 C   0  0  0  0  0  0  0  0  0  0  0  0
    6.7886    7.5893    2.3710 O   0  0  0  0  0  0  0  0  0  0  0  0
    6.7360    6.4562    0.2803 C   0  0  0  0  0  0  0  0  0  0  0  0
    6.8755    7.4741   -0.3808 O   0  0  0  0  0  0  0  0  0  0  0  0
  1  2  2  0  0  0  0
  2  3  1  0  0  0  0
  2  7  1  0  0  0  0
  3  4  1  0  0  0  0
  4  5  1  0  0  0  0
  5  6  2  0  0  0  0
  5 15  1  0  0  0  0
  6  7  1  0  0  0  0
  6  8  1  0  0  0  0
  8  9  1  0  0  0  0
  8 13  2  0  0  0  0
  9 10  1  0  0  0  0
 10 11  2  0  0  0  0
 10 37  1  0  0  0  0
 11 12  1  0  0  0  0
 11 17  1  0  0  0  0
 12 13  1  0  0  0  0
 13 14  1  0  0  0  0
 14 15  2  0  0  0  0
 15 16  1  0  0  0  0
 17 18  2  0  0  0  0
 17 22  1  0  0  0  0
 18 19  1  0  0  0  0
 19 20  2  0  0  0  0
 20 21  1  0  0  0  0
 21 22  2  0  0  0  0
 21 26  1  0  0  0  0
 22 23  1  0  0  0  0
 23 24  2  0  0  0  0
 24 25  1  0  0  0  0
 24 31  1  0  0  0  0
 25 26  2  0  0  0  0
 25 27  1  0  0  0  0
 28 27  1  6  0  0  0
 28 29  1  0  0  0  0
 28 33  1  0  0  0  0
 29 30  2  0  0  0  0
 29 31  1  0  0  0  0
 31 32  2  0  0  0  0
 33 34  1  6  0  0  0
 33 35  1  0  0  0  0
 34 35  1  0  0  0  0
 35 36  2  0  0  0  0
 38 37  1  6  0  0  0
 38 39  1  0  0  0  0
 38 48  1  0  0  0  0
 39 40  1  0  0  0  0
 40 44  1  0  0  0  0
 40 41  1  1  0  0  0
 41 42  1  0  0  0  0
 41 43  1  0  0  0  0
 42 43  1  0  0  0  0
 44 45  2  0  0  0  0
 44 46  1  0  0  0  0
 46 47  2  0  0  0  0
 46 48  1  0  0  0  0
 48 49  2  0  0  0  0
M  END
$$$$