
 OpenBabel11222023343D

 53 62  0  0  1  0  0  0  0  0999 V2000
    3.6389  -10.3199   -1.9549 O   0  0  0  0  0  0  0  0  0  0  0  0
    2.6379  -10.6783   -2.8206 C   0  0  0  0  0  0  0  0  0  0  0  0
    2.4445  -10.0584   -3.9900 C   0  0  0  0  0  0  0  0  0  0  0  0
    3.2500   -8.9897   -4.3553 O   0  0  0  0  0  0  0  0  0  0  0  0
    3.3009   -8.7222   -5.7525 C   0  0  2  0  0  0  0  0  0  0  0  0
    4.1313   -7.5844   -6.0387 O   0  0  0  0  0  0  0  0  0  0  0  0
    5.4617   -7.6816   -5.6590 C   0  0  0  0  0  0  0  0  0  0  0  0
    6.1563   -6.5835   -5.2984 C   0  0  0  0  0  0  0  0  0  0  0  0
    7.5203   -6.6155   -5.0290 O   0  0  0  0  0  0  0  0  0  0  0  0
    8.2521   -7.7350   -5.3918 C   0  0  0  0  0  0  0  0  0  0  0  0
    7.6665   -8.8654   -5.8287 C   0  0  0  0  0  0  0  0  0  0  0  0
    6.1733   -9.0075   -5.8249 C   0  0  0  0  0  0  0  0  0  0  0  0
    8.5166  -10.0296   -6.2912 C   0  0  3  0  0  0  0  0  0  0  0  0
    8.2441  -10.2855   -7.6840 N   0  0  0  0  0  0  0  0  0  0  0  0
    9.0558  -11.0170   -8.4843 C   0  0  0  0  0  0  0  0  0  0  0  0
    8.6635  -11.4242   -9.5703 O   0  0  0  0  0  0  0  0  0  0  0  0
   10.3158  -11.2328   -8.0445 N   0  0  0  0  0  0  0  0  0  0  0  0
   10.7909  -10.9357   -6.7202 C   0  0  0  0  0  0  0  0  0  0  0  0
   10.0015   -9.7898   -6.1835 C   0  0  0  0  0  0  0  0  0  0  0  0
   10.4994   -8.6282   -5.7042 C   0  0  0  0  0  0  0  0  0  0  0  0
    9.6147   -7.6380   -5.3053 N   0  0  0  0  0  0  0  0  0  0  0  0
   11.9412   -8.3030   -5.5975 C   0  0  0  0  0  0  0  0  0  0  0  0
   12.6528   -7.6772   -6.6761 O   0  0  0  0  0  0  0  0  0  0  0  0
   12.4034   -6.9460   -5.4603 O   0  0  0  0  0  0  0  0  0  0  0  0
    5.6056   -5.2148   -5.3266 C   0  0  0  0  0  0  0  0  0  0  0  0
    6.2001   -4.3490   -6.2411 C   0  0  0  0  0  0  0  0  0  0  0  0
    5.7739   -3.0917   -6.3687 N   0  3  0  0  0  0  0  0  0  0  0  0
    6.3721   -2.2859   -7.2664 F   0  0  0  0  0  0  0  0  0  0  0  0
    4.7838   -2.6026   -5.6473 N   0  0  0  0  0  0  0  0  0  0  0  0
    4.1678   -3.3830   -4.7525 C   0  0  0  0  0  0  0  0  0  0  0  0
    4.5426   -4.7242   -4.5392 C   0  0  0  0  0  0  0  0  0  0  0  0
    3.8399   -5.4746   -3.5600 C   0  0  0  0  0  0  0  0  0  0  0  0
    2.7687   -4.9129   -2.8494 C   0  0  0  0  0  0  0  0  0  0  0  0
    2.4118   -3.5974   -3.0605 C   0  0  0  0  0  0  0  0  0  0  0  0
    3.1223   -2.8497   -3.9975 C   0  0  0  0  0  0  0  0  0  0  0  0
    2.7835   -1.5642   -4.1867 F   0  0  0  0  0  0  0  0  0  0  0  0
    1.4443   -2.9734   -2.3243 O   0  0  0  0  0  0  0  0  0  0  0  0
    0.3442   -3.8159   -1.9007 C   0  0  1  0  0  0  0  0  0  0  0  0
    0.6520   -5.1872   -1.4445 C   0  0  0  0  0  0  0  0  0  0  0  0
   -0.1603   -5.9178   -0.9003 O   0  0  0  0  0  0  0  0  0  0  0  0
    2.0096   -5.7004   -1.8735 C   0  0  0  0  0  0  0  0  0  0  0  0
    2.4385   -6.7727   -1.4785 O   0  0  0  0  0  0  0  0  0  0  0  0
   -0.6629   -3.1549   -1.1742 O   0  0  0  0  0  0  0  0  0  0  0  0
   -1.0100   -3.6060   -2.5191 C   0  0  1  0  0  0  0  0  0  0  0  0
   -0.8135   -2.6680   -3.6459 O   0  0  0  0  0  0  0  0  0  0  0  0
   -1.9697   -2.6564   -3.0193 C   0  0  0  0  0  0  0  0  0  0  0  0
   -3.1060   -2.7551   -3.4258 O   0  0  0  0  0  0  0  0  0  0  0  0
    1.8966   -8.4071   -6.2200 C   0  0  0  0  0  0  0  0  0  0  0  0
    1.5079   -7.3480   -6.6886 O   0  0  0  0  0  0  0  0  0  0  0  0
    0.9729   -9.5712   -5.9803 C   0  0  0  0  0  0  0  0  0  0  0  0
    0.0174   -9.7552   -6.7132 O   0  0  0  0  0  0  0  0  0  0  0  0
    1.3071  -10.5194   -4.8426 C   0  0  0  0  0  0  0  0  0  0  0  0
    0.7119  -11.5703   -4.6833 O   0  0  0  0  0  0  0  0  0  0  0  0
  1  2  1  0  0  0  0
  2  3  2  0  0  0  0
  3  4  1  0  0  0  0
  3 52  1  0  0  0  0
  4  5  1  0  0  0  0
  5  6  1  1  0  0  0
  5 48  1  0  0  0  0
  6  7  1  0  0  0  0
  7  8  2  0  0  0  0
  7 12  1  0  0  0  0
  8  9  1  0  0  0  0
  8 25  1  0  0  0  0
  9 10  1  0  0  0  0
 10 11  2  0  0  0  0
 10 21  1  0  0  0  0
 11 12  1  0  0  0  0
 11 13  1  0  0  0  0
 13 14  1  0  0  0  0
 13 19  1  0  0  0  0
 14 15  1  0  0  0  0
 15 16  2  0  0  0  0
 15 17  1  0  0  0  0
 17 18  1  0  0  0  0
 18 19  1  0  0  0  0
 19 20  2  0  0  0  0
 20 21  1  0  0  0  0
 20 22  1  0  0  0  0
 22 23  1  0  0  0  0
 22 24  1  0  0  0  0
 23 24  1  0  0  0  0
 25 26  2  0  0  0  0
 25 31  1  0  0  0  0
 26 27  1  0  0  0  0
 27 28  1  0  0  0  0
 27 29  2  0  0  0  0
 29 30  1  0  0  0  0
 30 31  2  0  0  0  0
 30 35  1  0  0  0  0
 31 32  1  0  0  0  0
 32 33  2  0  0  0  0
 33 34  1  0  0  0  0
 33 41  1  0  0  0  0
 34 35  2  0  0  0  0
 34 37  1  0  0  0  0
 35 36  1  0  0  0  0
 38 37  1  6  0  0  0
 38 39  1  0  0  0  0
 38 43  1  0  0  0  0
 38 44  1  0  0  0  0
 39 40  2  0  0  0  0
 39 41  1  0  0  0  0
 41 42  2  0  0  0  0
 44 43  1  1  0  0  0
 44 45  1  0  0  0  0
 44 46  1  0  0  0  0
 45 46  1  0  0  0  0
 46 47  2  0  0  0  0
 48 49  2  0  0  0  0
 48 50  1  0  0  0  0
 50 51  2  0  0  0  0
 50 52  1  0  0  0  0
 52 53  2  0  0  0  0
M  CHG  1  27   1
M  END
$$$$