
 OpenBabel05092121563D

 50 60  0  0  1  0  0  0  0  0999 V2000
    4.4090    2.6320   -2.0007 F   0  0  0  0  0  0  0  0  0  0  0  0
    5.4300    1.8084   -2.2703 C   0  0  0  0  0  0  0  0  0  0  0  0
    6.4860    2.2685   -3.0406 C   0  0  0  0  0  0  0  0  0  0  0  0
    7.5063    1.3866   -3.3617 C   0  0  0  0  0  0  0  0  0  0  0  0
    7.4480    0.0615   -2.9143 C   0  0  0  0  0  0  0  0  0  0  0  0
    6.4305   -0.4214   -2.0607 C   0  0  0  0  0  0  0  0  0  0  0  0
    5.4046    0.5017   -1.7708 C   0  0  0  0  0  0  0  0  0  0  0  0
    6.3947   -1.8174   -1.5060 C   0  0  0  0  0  0  0  0  0  0  0  0
    5.1644   -2.4626   -1.2909 C   0  0  0  0  0  0  0  0  0  0  0  0
    5.0717   -3.7809   -0.8019 C   0  0  0  0  0  0  0  0  0  0  0  0
    6.2052   -4.5735   -0.5488 C   0  0  0  0  0  0  0  0  0  0  0  0
    7.4673   -3.9667   -0.7795 C   0  0  0  0  0  0  0  0  0  0  0  0
    7.5268   -2.5981   -1.1857 C   0  0  0  0  0  0  0  0  0  0  0  0
    8.8980   -2.0456   -1.2341 C   0  0  0  0  0  0  0  0  0  0  0  0
    9.1777   -0.9701   -0.7110 O   0  0  0  0  0  0  0  0  0  0  0  0
    9.9255   -2.9587   -1.9127 C   0  0  1  0  0  0  0  0  0  0  0  0
   10.0108   -4.1798   -0.9941 C   0  0  2  0  0  0  0  0  0  0  0  0
    8.6443   -4.7465   -0.6468 C   0  0  0  0  0  0  0  0  0  0  0  0
    8.5686   -6.0819   -0.2829 C   0  0  0  0  0  0  0  0  0  0  0  0
    7.3311   -6.6481   -0.0019 C   0  0  0  0  0  0  0  0  0  0  0  0
    6.1117   -5.9373   -0.1141 C   0  0  0  0  0  0  0  0  0  0  0  0
    4.7125   -6.7165    0.1264 C   0  0  0  0  0  0  0  0  0  0  0  0
    3.7142   -6.0158    1.4370 C   0  0  0  0  0  0  0  0  0  0  0  0
    4.1607   -7.1441    1.7573 C   0  0  0  0  0  0  0  0  0  0  0  0
    4.8777   -8.0609    1.3174 C   0  0  0  0  0  0  0  0  0  0  0  0
    9.6347   -6.9305   -0.2435 O   0  0  0  0  0  0  0  0  0  0  0  0
   10.8888   -6.4916   -0.7830 C   0  0  2  0  0  0  0  0  0  0  0  0
   10.8407   -5.2543   -1.6842 C   0  0  1  0  0  0  0  0  0  0  0  0
   10.2526   -5.5218   -3.0487 C   0  0  0  0  0  0  0  0  0  0  0  0
    9.6347   -4.4778   -3.7428 C   0  0  0  0  0  0  0  0  0  0  0  0
    9.4811   -3.2186   -3.2450 O   0  0  0  0  0  0  0  0  0  0  0  0
    9.0644   -4.7046   -4.9901 C   0  0  0  0  0  0  0  0  0  0  0  0
    9.0858   -5.9818   -5.5400 C   0  0  0  0  0  0  0  0  0  0  0  0
    9.6763   -7.0444   -4.8448 C   0  0  0  0  0  0  0  0  0  0  0  0
   10.2817   -6.8209   -3.5947 C   0  0  0  0  0  0  0  0  0  0  0  0
   10.8525   -7.9183   -2.9252 C   0  0  0  0  0  0  0  0  0  0  0  0
   11.4271   -7.6985   -1.5765 C   0  0  0  0  0  0  0  0  0  0  0  0
   12.2637   -8.4728   -1.1124 O   0  0  0  0  0  0  0  0  0  0  0  0
   10.8348   -9.2090   -3.4809 C   0  0  0  0  0  0  0  0  0  0  0  0
   10.2239   -9.4292   -4.7185 C   0  0  0  0  0  0  0  0  0  0  0  0
    9.6319   -8.3411   -5.3681 C   0  0  0  0  0  0  0  0  0  0  0  0
    9.9679  -11.1000   -5.3219 S   0  3  0  0  0  0  0  0  0  0  0  0
   11.6286  -11.8056   -5.3829 C   0  0  0  0  0  0  0  0  0  0  0  0
   12.6245  -11.1006   -6.2877 C   0  0  0  0  0  0  0  0  0  0  0  0
   12.1648  -10.9968   -7.7368 C   0  0  0  0  0  0  0  0  0  0  0  0
   10.8552  -10.2349   -7.8608 C   0  0  0  0  0  0  0  0  0  0  0  0
    9.7185  -10.9034   -7.1031 C   0  0  0  0  0  0  0  0  0  0  0  0
   11.7826   -6.2177    0.3001 O   0  0  0  0  0  0  0  0  0  0  0  0
   11.1954   -2.3158   -1.9683 O   0  0  0  0  0  0  0  0  0  0  0  0
    8.4051   -0.7552   -3.3752 F   0  0  0  0  0  0  0  0  0  0  0  0
  1  2  1  0  0  0  0
  2  3  2  0  0  0  0
  2  7  1  0  0  0  0
  3  4  1  0  0  0  0
  4  5  2  0  0  0  0
  5  6  1  0  0  0  0
  5 50  1  0  0  0  0
  6  7  2  0  0  0  0
  6  8  1  0  0  0  0
  8  9  2  0  0  0  0
  8 13  1  0  0  0  0
  9 10  1  0  0  0  0
 10 11  2  0  0  0  0
 11 12  1  0  0  0  0
 11 21  1  0  0  0  0
 12 13  2  0  0  0  0
 12 18  1  0  0  0  0
 13 14  1  0  0  0  0
 14 16  1  0  0  0  0
 14 15  2  0  0  0  0
 16 17  1  0  0  0  0
 16 31  1  0  0  0  0
 16 49  1  6  0  0  0
 17 18  1  1  0  0  0
 17 28  1  0  0  0  0
 18 19  2  0  0  0  0
 19 20  1  0  0  0  0
 19 26  1  0  0  0  0
 20 21  2  0  0  0  0
 21 22  1  0  0  0  0
 22 23  1  0  0  0  0
 22 25  1  0  0  0  0
 23 24  2  0  0  0  0
 24 25  2  0  0  0  0
 26 27  1  0  0  0  0
 27 28  1  0  0  0  0
 27 37  1  0  0  0  0
 27 48  1  1  0  0  0
 28 29  1  6  0  0  0
 29 30  2  0  0  0  0
 29 35  1  0  0  0  0
 30 31  1  0  0  0  0
 30 32  1  0  0  0  0
 32 33  2  0  0  0  0
 33 34  1  0  0  0  0
 34 35  2  0  0  0  0
 34 41  1  0  0  0  0
 35 36  1  0  0  0  0
 36 37  1  0  0  0  0
 36 39  2  0  0  0  0
 37 38  2  0  0  0  0
 39 40  1  0  0  0  0
 40 41  2  0  0  0  0
 40 42  1  0  0  0  0
 42 43  1  0  0  0  0
 42 47  1  0  0  0  0
 43 44  1  0  0  0  0
 44 45  1  0  0  0  0
 45 46  1  0  0  0  0
 46 47  1  0  0  0  0
M  CHG  1  42   1
M  END
$$$$