
 OpenBabel09252006403D

 56 65  0  0  1  0  0  0  0  0999 V2000
    5.5103    0.5284    0.7219 O   0  0  0  0  0  0  0  0  0  0  0  0
    6.5225    0.5414    1.6426 C   0  0  0  0  0  0  0  0  0  0  0  0
    6.4013    1.0945    2.8560 C   0  0  0  0  0  0  0  0  0  0  0  0
    5.2321    1.7144    3.2723 O   0  0  0  0  0  0  0  0  0  0  0  0
    5.1455    1.9745    4.6786 C   0  0  2  0  0  0  0  0  0  0  0  0
    3.9416    2.6860    5.0111 O   0  0  0  0  0  0  0  0  0  0  0  0
    2.7245    2.0341    4.8583 C   0  0  0  0  0  0  0  0  0  0  0  0
    1.6608    2.6609    4.3041 C   0  0  0  0  0  0  0  0  0  0  0  0
    0.4107    2.0722    4.1740 O   0  0  0  0  0  0  0  0  0  0  0  0
    0.2626    0.7312    4.4784 C   0  0  0  0  0  0  0  0  0  0  0  0
    1.2331    0.0342    5.0931 C   0  0  0  0  0  0  0  0  0  0  0  0
    2.5378    0.6624    5.4824 C   0  0  0  0  0  0  0  0  0  0  0  0
    0.9896   -1.4240    5.3227 C   0  0  0  0  0  0  0  0  0  0  0  0
    1.8950   -2.1814    5.8515 N   0  0  0  0  0  0  0  0  0  0  0  0
    1.6370   -3.5332    6.0058 C   0  0  0  0  0  0  0  0  0  0  0  0
    2.5430   -4.2495    6.4123 O   0  0  0  0  0  0  0  0  0  0  0  0
    0.4199   -4.1195    5.7168 N   0  0  0  0  0  0  0  0  0  0  0  0
   -0.5038   -3.3917    5.1929 C   0  0  0  0  0  0  0  0  0  0  0  0
   -0.3242   -1.9710    4.9023 C   0  0  0  0  0  0  0  0  0  0  0  0
   -1.2318   -1.1753    4.3053 C   0  0  0  0  0  0  0  0  0  0  0  0
   -0.9202    0.1556    4.0959 N   0  0  0  0  0  0  0  0  0  0  0  0
   -2.5612   -1.6114    3.8238 C   0  0  0  0  0  0  0  0  0  0  0  0
   -3.5580   -2.1462    4.7079 O   0  0  0  0  0  0  0  0  0  0  0  0
   -3.7496   -0.8525    4.1052 O   0  0  0  0  0  0  0  0  0  0  0  0
    1.6958    4.0513    3.8145 C   0  0  0  0  0  0  0  0  0  0  0  0
    1.3762    4.9670    4.7502 N   0  0  0  0  0  0  0  0  0  0  0  0
    1.4757    6.2364    4.3672 C   0  0  0  0  0  0  0  0  0  0  0  0
    1.8864    6.6626    3.1662 N   0  0  0  0  0  0  0  0  0  0  0  0
    2.1885    5.7568    2.2272 C   0  0  0  0  0  0  0  0  0  0  0  0
    2.0495    4.3834    2.4962 C   0  0  0  0  0  0  0  0  0  0  0  0
    2.2621    3.4397    1.4713 C   0  0  0  0  0  0  0  0  0  0  0  0
    2.6966    3.8550    0.2177 C   0  0  0  0  0  0  0  0  0  0  0  0
    2.8855    2.8596   -0.8467 C   0  0  0  0  0  0  0  0  0  0  0  0
    2.4361    1.7269   -0.7626 O   0  0  0  0  0  0  0  0  0  0  0  0
    3.6450    3.3088   -2.0704 C   0  0  0  0  0  0  0  0  0  0  0  0
    3.7855    2.5705   -3.0360 O   0  0  0  0  0  0  0  0  0  0  0  0
    4.2717    4.6751   -1.9448 C   0  0  1  0  0  0  0  0  0  0  0  0
    3.4873    5.6303   -1.2188 O   0  0  0  0  0  0  0  0  0  0  0  0
    2.9591    5.2010   -0.0268 C   0  0  0  0  0  0  0  0  0  0  0  0
    2.6699    6.1722    0.9622 C   0  0  0  0  0  0  0  0  0  0  0  0
    2.9370    7.6555    0.6776 C   0  0  0  0  0  0  0  0  0  0  0  0
    1.6987    8.5726    0.7494 C   0  0  0  0  0  0  0  0  0  0  0  0
    2.2188    9.8897    1.3140 C   0  0  0  0  0  0  0  0  0  0  0  0
    3.2811    9.4574    2.3087 C   0  0  0  0  0  0  0  0  0  0  0  0
    3.9904    8.3046    1.6052 C   0  0  0  0  0  0  0  0  0  0  0  0
    5.6538    4.5748   -1.3814 C   0  0  1  0  0  0  0  0  0  0  0  0
    5.7826    3.9809   -0.0665 O   0  0  0  0  0  0  0  0  0  0  0  0
    6.6568    4.2027   -2.3281 O   0  0  0  0  0  0  0  0  0  0  0  0
    6.7678    5.4361   -1.7863 C   0  0  0  0  0  0  0  0  0  0  0  0
    7.6567    5.9048   -1.1228 O   0  0  0  0  0  0  0  0  0  0  0  0
    6.3349    2.8192    5.1404 C   0  0  0  0  0  0  0  0  0  0  0  0
    6.2987    3.8097    5.8548 O   0  0  0  0  0  0  0  0  0  0  0  0
    7.6540    2.2728    4.6502 C   0  0  0  0  0  0  0  0  0  0  0  0
    8.7159    2.7809    4.9703 O   0  0  0  0  0  0  0  0  0  0  0  0
    7.6279    1.1088    3.6925 C   0  0  0  0  0  0  0  0  0  0  0  0
    8.5246    0.2866    3.6363 O   0  0  0  0  0  0  0  0  0  0  0  0
  1  2  1  0  0  0  0
  2  3  2  0  0  0  0
  3  4  1  0  0  0  0
  3 55  1  0  0  0  0
  4  5  1  0  0  0  0
  5  6  1  6  0  0  0
  5 51  1  0  0  0  0
  6  7  1  0  0  0  0
  7  8  2  0  0  0  0
  7 12  1  0  0  0  0
  8  9  1  0  0  0  0
  8 25  1  0  0  0  0
  9 10  1  0  0  0  0
 10 11  2  0  0  0  0
 10 21  1  0  0  0  0
 11 12  1  0  0  0  0
 11 13  1  0  0  0  0
 13 14  2  0  0  0  0
 13 19  1  0  0  0  0
 14 15  1  0  0  0  0
 15 16  2  0  0  0  0
 15 17  1  0  0  0  0
 17 18  2  0  0  0  0
 18 19  1  0  0  0  0
 19 20  2  0  0  0  0
 20 21  1  0  0  0  0
 20 22  1  0  0  0  0
 22 23  1  0  0  0  0
 22 24  1  0  0  0  0
 23 24  1  0  0  0  0
 25 26  2  0  0  0  0
 25 30  1  0  0  0  0
 26 27  1  0  0  0  0
 27 28  2  0  0  0  0
 28 29  1  0  0  0  0
 29 30  2  0  0  0  0
 29 40  1  0  0  0  0
 30 31  1  0  0  0  0
 31 32  2  0  0  0  0
 32 33  1  0  0  0  0
 32 39  1  0  0  0  0
 33 34  2  0  0  0  0
 33 35  1  0  0  0  0
 35 36  2  0  0  0  0
 37 35  1  1  0  0  0
 37 38  1  0  0  0  0
 37 46  1  0  0  0  0
 38 39  1  0  0  0  0
 39 40  2  0  0  0  0
 40 41  1  0  0  0  0
 41 42  1  0  0  0  0
 41 45  1  0  0  0  0
 42 43  1  0  0  0  0
 43 44  1  0  0  0  0
 44 45  1  0  0  0  0
 46 47  1  1  0  0  0
 46 48  1  0  0  0  0
 46 49  1  0  0  0  0
 48 49  1  0  0  0  0
 49 50  2  0  0  0  0
 51 52  2  0  0  0  0
 51 53  1  0  0  0  0
 53 54  2  0  0  0  0
 53 55  1  0  0  0  0
 55 56  2  0  0  0  0
M  END
$$$$