
 OpenBabel11222001573D

 53 61  0  0  1  0  0  0  0  0999 V2000
    5.3722    4.5384   -7.2766 O   0  0  0  0  0  0  0  0  0  0  0  0
    5.4812    3.1888   -7.0605 C   0  0  0  0  0  0  0  0  0  0  0  0
    5.0445    2.6073   -5.9381 C   0  0  0  0  0  0  0  0  0  0  0  0
    4.5053    3.3527   -4.9018 O   0  0  0  0  0  0  0  0  0  0  0  0
    3.2547    2.8341   -4.4613 C   0  0  2  0  0  0  0  0  0  0  0  0
    2.7072    3.6355   -3.3879 O   0  0  0  0  0  0  0  0  0  0  0  0
    2.4703    4.9828   -3.6268 C   0  0  0  0  0  0  0  0  0  0  0  0
    2.5384    5.9002   -2.6283 C   0  0  0  0  0  0  0  0  0  0  0  0
    2.3456    7.2637   -2.8644 O   0  0  0  0  0  0  0  0  0  0  0  0
    2.1583    7.7263   -4.1595 C   0  0  0  0  0  0  0  0  0  0  0  0
    2.0082    6.8763   -5.1843 C   0  0  0  0  0  0  0  0  0  0  0  0
    2.0789    5.4011   -5.0277 C   0  0  0  0  0  0  0  0  0  0  0  0
    1.8405    7.4383   -6.5502 C   0  0  0  0  0  0  0  0  0  0  0  0
    1.6880    6.6487   -7.5670 N   0  0  0  0  0  0  0  0  0  0  0  0
    1.5834    7.2420   -8.7906 C   0  0  0  0  0  0  0  0  0  0  0  0
    1.4819    6.4221   -9.7694 N   0  0  0  0  0  0  0  0  0  0  0  0
    1.5925    8.5730   -9.0782 N   0  0  0  0  0  0  0  0  0  0  0  0
    1.7357    9.3805   -8.0824 C   0  0  0  0  0  0  0  0  0  0  0  0
    1.8750    8.9166   -6.6944 C   0  0  0  0  0  0  0  0  0  0  0  0
    2.0266    9.6904   -5.5992 C   0  0  0  0  0  0  0  0  0  0  0  0
    2.1410    9.0849   -4.3495 N   0  0  0  0  0  0  0  0  0  0  0  0
    2.0930   11.1743   -5.6119 C   0  0  0  0  0  0  0  0  0  0  0  0
    2.2781   11.9376   -4.4063 O   0  0  0  0  0  0  0  0  0  0  0  0
    3.3300   11.8685   -5.3886 O   0  0  0  0  0  0  0  0  0  0  0  0
    2.7915    5.5530   -1.1948 C   0  0  0  0  0  0  0  0  0  0  0  0
    2.3588    4.3312   -0.8307 N   0  0  0  0  0  0  0  0  0  0  0  0
    2.5566    3.9290    0.4000 N   0  3  0  0  0  0  0  0  0  0  0  0
    2.0442    2.7414    0.7771 F   0  0  0  0  0  0  0  0  0  0  0  0
    3.2277    4.6317    1.2847 N   0  0  0  0  0  0  0  0  0  0  0  0
    3.6158    5.8708    0.9661 C   0  0  0  0  0  0  0  0  0  0  0  0
    3.3723    6.4333   -0.2852 C   0  0  0  0  0  0  0  0  0  0  0  0
    3.6487    7.7349   -0.5413 N   0  0  0  0  0  0  0  0  0  0  0  0
    4.1080    8.5283    0.4599 C   0  0  0  0  0  0  0  0  0  0  0  0
    4.0611    9.9796    0.2347 C   0  0  0  0  0  0  0  0  0  0  0  0
    3.8050   10.4775   -0.8491 O   0  0  0  0  0  0  0  0  0  0  0  0
    4.2299   10.8222    1.4748 C   0  0  0  0  0  0  0  0  0  0  0  0
    3.6549   11.8944    1.5845 O   0  0  0  0  0  0  0  0  0  0  0  0
    5.1110   10.2056    2.5341 C   0  0  1  0  0  0  0  0  0  0  0  0
    4.9441    8.7935    2.7326 O   0  0  0  0  0  0  0  0  0  0  0  0
    4.4578    8.0470    1.6983 C   0  0  0  0  0  0  0  0  0  0  0  0
    4.2667    6.6721    1.9293 C   0  0  0  0  0  0  0  0  0  0  0  0
    4.4952    6.1708    3.2375 N   0  0  0  0  0  0  0  0  0  0  0  0
    6.5572   10.5179    2.2960 C   0  0  1  0  0  0  0  0  0  0  0  0
    7.1277   10.0585    1.0537 O   0  0  0  0  0  0  0  0  0  0  0  0
    7.0157   11.7980    2.7299 O   0  0  0  0  0  0  0  0  0  0  0  0
    7.4540   10.7327    3.4294 C   0  0  0  0  0  0  0  0  0  0  0  0
    7.3407   10.4467    4.5960 O   0  0  0  0  0  0  0  0  0  0  0  0
    3.4076    1.4340   -3.8812 C   0  0  0  0  0  0  0  0  0  0  0  0
    2.7163    0.9677   -2.9834 O   0  0  0  0  0  0  0  0  0  0  0  0
    4.5296    0.6336   -4.5058 C   0  0  0  0  0  0  0  0  0  0  0  0
    4.9550   -0.3619   -3.9425 O   0  0  0  0  0  0  0  0  0  0  0  0
    5.1654    1.1330   -5.7864 C   0  0  0  0  0  0  0  0  0  0  0  0
    5.6801    0.3846   -6.5961 O   0  0  0  0  0  0  0  0  0  0  0  0
  1  2  1  0  0  0  0
  2  3  2  0  0  0  0
  3  4  1  0  0  0  0
  3 52  1  0  0  0  0
  4  5  1  0  0  0  0
  5  6  1  1  0  0  0
  5 48  1  0  0  0  0
  6  7  1  0  0  0  0
  7  8  2  0  0  0  0
  7 12  1  0  0  0  0
  8  9  1  0  0  0  0
  8 25  1  0  0  0  0
  9 10  1  0  0  0  0
 10 11  2  0  0  0  0
 10 21  1  0  0  0  0
 11 12  1  0  0  0  0
 11 13  1  0  0  0  0
 13 14  2  0  0  0  0
 13 19  1  0  0  0  0
 14 15  1  0  0  0  0
 15 16  2  0  0  0  0
 15 17  1  0  0  0  0
 17 18  2  0  0  0  0
 18 19  1  0  0  0  0
 19 20  2  0  0  0  0
 20 21  1  0  0  0  0
 20 22  1  0  0  0  0
 22 23  1  0  0  0  0
 22 24  1  0  0  0  0
 23 24  1  0  0  0  0
 25 26  2  0  0  0  0
 25 31  1  0  0  0  0
 26 27  1  0  0  0  0
 27 28  1  0  0  0  0
 27 29  2  0  0  0  0
 29 30  1  0  0  0  0
 30 31  2  0  0  0  0
 30 41  1  0  0  0  0
 31 32  1  0  0  0  0
 32 33  2  0  0  0  0
 33 34  1  0  0  0  0
 33 40  1  0  0  0  0
 34 35  2  0  0  0  0
 34 36  1  0  0  0  0
 36 37  2  0  0  0  0
 38 36  1  6  0  0  0
 38 39  1  0  0  0  0
 38 43  1  0  0  0  0
 39 40  1  0  0  0  0
 40 41  2  0  0  0  0
 41 42  1  0  0  0  0
 43 44  1  6  0  0  0
 43 45  1  0  0  0  0
 43 46  1  0  0  0  0
 45 46  1  0  0  0  0
 46 47  2  0  0  0  0
 48 49  2  0  0  0  0
 48 50  1  0  0  0  0
 50 51  2  0  0  0  0
 50 52  1  0  0  0  0
 52 53  2  0  0  0  0
M  CHG  1  27   1
M  END
$$$$