
 OpenBabel09242009513D

 52 60  0  0  1  0  0  0  0  0999 V2000
    6.7648   -6.6914    3.3251 O   0  0  0  0  0  0  0  0  0  0  0  0
    6.6363   -5.5548    4.0816 C   0  0  0  0  0  0  0  0  0  0  0  0
    5.7554   -4.5911    3.7919 C   0  0  0  0  0  0  0  0  0  0  0  0
    4.9330   -4.6777    2.6842 O   0  0  0  0  0  0  0  0  0  0  0  0
    3.5816   -4.3327    2.9955 C   0  0  2  0  0  0  0  0  0  0  0  0
    2.7167   -4.6157    1.8974 O   0  0  0  0  0  0  0  0  0  0  0  0
    2.6492   -5.9300    1.4508 C   0  0  0  0  0  0  0  0  0  0  0  0
    2.3991   -6.2268    0.1502 C   0  0  0  0  0  0  0  0  0  0  0  0
    2.2822   -7.5463   -0.2917 O   0  0  0  0  0  0  0  0  0  0  0  0
    2.4697   -8.5984    0.5881 C   0  0  0  0  0  0  0  0  0  0  0  0
    2.6789   -8.3893    1.8948 C   0  0  0  0  0  0  0  0  0  0  0  0
    2.7866   -7.0288    2.4804 C   0  0  0  0  0  0  0  0  0  0  0  0
    2.8343   -9.5737    2.7817 C   0  0  0  0  0  0  0  0  0  0  0  0
    3.0227   -9.4301    4.0527 N   0  0  0  0  0  0  0  0  0  0  0  0
    3.1617  -10.5538    4.8431 C   0  0  0  0  0  0  0  0  0  0  0  0
    3.3597  -10.3920    6.0415 O   0  0  0  0  0  0  0  0  0  0  0  0
    3.0964  -11.8443    4.3548 N   0  0  0  0  0  0  0  0  0  0  0  0
    2.9081  -12.0171    3.0919 C   0  0  0  0  0  0  0  0  0  0  0  0
    2.7651  -10.9090    2.1495 C   0  0  0  0  0  0  0  0  0  0  0  0
    2.5867  -11.0172    0.8179 C   0  0  0  0  0  0  0  0  0  0  0  0
    2.4396   -9.8640    0.0606 N   0  0  0  0  0  0  0  0  0  0  0  0
    2.5299  -12.2982    0.0761 C   0  0  0  0  0  0  0  0  0  0  0  0
    1.2996  -13.0200   -0.0826 O   0  0  0  0  0  0  0  0  0  0  0  0
    1.9240  -12.4004   -1.2244 O   0  0  0  0  0  0  0  0  0  0  0  0
    2.1580   -5.2002   -0.9129 C   0  0  0  0  0  0  0  0  0  0  0  0
    1.5792   -4.0678   -0.4557 N   0  0  0  0  0  0  0  0  0  0  0  0
    1.3255   -3.0847   -1.3229 C   0  0  0  0  0  0  0  0  0  0  0  0
    0.7159   -1.8250   -0.7935 C   0  0  0  0  0  0  0  0  0  0  0  0
    1.5764   -3.1569   -2.6356 N   0  0  0  0  0  0  0  0  0  0  0  0
    2.1209   -4.2805   -3.1014 C   0  0  0  0  0  0  0  0  0  0  0  0
    2.4549   -5.3744   -2.2850 C   0  0  0  0  0  0  0  0  0  0  0  0
    3.0402   -6.5122   -2.9083 C   0  0  0  0  0  0  0  0  0  0  0  0
    3.2422   -6.5592   -4.2924 C   0  0  0  0  0  0  0  0  0  0  0  0
    2.9117   -5.4767   -5.0795 C   0  0  0  0  0  0  0  0  0  0  0  0
    2.3566   -4.3503   -4.4711 C   0  0  0  0  0  0  0  0  0  0  0  0
    3.0293   -5.4317   -6.4320 O   0  0  0  0  0  0  0  0  0  0  0  0
    3.8608   -6.3945   -7.0763 C   0  0  2  0  0  0  0  0  0  0  0  0
    4.2475   -7.6611   -6.3414 C   0  0  0  0  0  0  0  0  0  0  0  0
    4.9633   -8.5301   -6.8240 O   0  0  0  0  0  0  0  0  0  0  0  0
    3.7645   -7.7723   -4.9185 C   0  0  0  0  0  0  0  0  0  0  0  0
    3.8296   -8.8303   -4.3116 O   0  0  0  0  0  0  0  0  0  0  0  0
    5.0594   -5.6863   -7.6456 C   0  0  1  0  0  0  0  0  0  0  0  0
    4.7660   -4.6161   -8.5799 O   0  0  0  0  0  0  0  0  0  0  0  0
    6.0853   -5.4153   -6.6909 O   0  0  0  0  0  0  0  0  0  0  0  0
    6.4220   -6.2190   -7.7232 C   0  0  0  0  0  0  0  0  0  0  0  0
    7.2754   -6.0504   -8.5698 O   0  0  0  0  0  0  0  0  0  0  0  0
    3.4814   -2.8550    3.3610 C   0  0  0  0  0  0  0  0  0  0  0  0
    2.5383   -2.1118    3.1298 O   0  0  0  0  0  0  0  0  0  0  0  0
    4.6609   -2.3776    4.1797 C   0  0  0  0  0  0  0  0  0  0  0  0
    4.8161   -1.1925    4.4284 O   0  0  0  0  0  0  0  0  0  0  0  0
    5.6611   -3.4011    4.6781 C   0  0  0  0  0  0  0  0  0  0  0  0
    6.2693   -3.2636    5.7248 O   0  0  0  0  0  0  0  0  0  0  0  0
  1  2  1  0  0  0  0
  2  3  2  0  0  0  0
  3  4  1  0  0  0  0
  3 51  1  0  0  0  0
  4  5  1  0  0  0  0
  5  6  1  6  0  0  0
  5 47  1  0  0  0  0
  6  7  1  0  0  0  0
  7  8  2  0  0  0  0
  7 12  1  0  0  0  0
  8  9  1  0  0  0  0
  8 25  1  0  0  0  0
  9 10  1  0  0  0  0
 10 11  2  0  0  0  0
 10 21  1  0  0  0  0
 11 12  1  0  0  0  0
 11 13  1  0  0  0  0
 13 14  2  0  0  0  0
 13 19  1  0  0  0  0
 14 15  1  0  0  0  0
 15 16  2  0  0  0  0
 15 17  1  0  0  0  0
 17 18  2  0  0  0  0
 18 19  1  0  0  0  0
 19 20  2  0  0  0  0
 20 21  1  0  0  0  0
 20 22  1  0  0  0  0
 22 23  1  0  0  0  0
 22 24  1  0  0  0  0
 23 24  1  0  0  0  0
 25 26  2  0  0  0  0
 25 31  1  0  0  0  0
 26 27  1  0  0  0  0
 27 28  1  0  0  0  0
 27 29  2  0  0  0  0
 29 30  1  0  0  0  0
 30 31  2  0  0  0  0
 30 35  1  0  0  0  0
 31 32  1  0  0  0  0
 32 33  2  0  0  0  0
 33 34  1  0  0  0  0
 33 40  1  0  0  0  0
 34 35  2  0  0  0  0
 34 36  1  0  0  0  0
 37 36  1  1  0  0  0
 37 38  1  0  0  0  0
 37 42  1  0  0  0  0
 38 39  2  0  0  0  0
 38 40  1  0  0  0  0
 40 41  2  0  0  0  0
 42 43  1  6  0  0  0
 42 44  1  0  0  0  0
 42 45  1  0  0  0  0
 44 45  1  0  0  0  0
 45 46  2  0  0  0  0
 47 48  2  0  0  0  0
 47 49  1  0  0  0  0
 49 50  2  0  0  0  0
 49 51  1  0  0  0  0
 51 52  2  0  0  0  0
M  END
$$$$