
 OpenBabel11222001323D

 54 62  0  0  1  0  0  0  0  0999 V2000
    1.4277    6.0943    3.8682 O   0  0  0  0  0  0  0  0  0  0  0  0
    2.7309    5.6732    3.8638 C   0  0  0  0  0  0  0  0  0  0  0  0
    3.0804    4.4019    4.0880 C   0  0  0  0  0  0  0  0  0  0  0  0
    2.1283    3.4479    4.3889 O   0  0  0  0  0  0  0  0  0  0  0  0
    2.3859    2.1195    3.9522 C   0  0  2  0  0  0  0  0  0  0  0  0
    1.5517    1.1664    4.6575 O   0  0  0  0  0  0  0  0  0  0  0  0
    1.7242    1.0053    6.0296 C   0  0  0  0  0  0  0  0  0  0  0  0
    1.5181   -0.1825    6.6500 C   0  0  0  0  0  0  0  0  0  0  0  0
    1.7183   -0.3116    8.0200 O   0  0  0  0  0  0  0  0  0  0  0  0
    2.3180    0.6663    8.7647 C   0  0  0  0  0  0  0  0  0  0  0  0
    2.4459    1.9097    8.2810 C   0  0  0  0  0  0  0  0  0  0  0  0
    2.0875    2.2245    6.8606 C   0  0  0  0  0  0  0  0  0  0  0  0
    2.9930    3.0253    9.1139 C   0  0  3  0  0  0  0  0  0  0  0  0
    1.9473    3.9625    9.3071 O   0  0  0  0  0  0  0  0  0  0  0  0
    2.2401    5.0544   10.0619 C   0  0  0  0  0  0  0  0  0  0  0  0
    1.5415    6.0542   10.0480 O   0  0  0  0  0  0  0  0  0  0  0  0
    3.3752    4.9641   10.7983 O   0  0  0  0  0  0  0  0  0  0  0  0
    3.8584    3.7101   11.2715 C   0  0  3  0  0  0  0  0  0  0  0  0
    3.3841    2.5564   10.4634 C   0  0  0  0  0  0  0  0  0  0  0  0
    3.2879    1.2637   10.8626 C   0  0  0  0  0  0  0  0  0  0  0  0
    2.7485    0.3046   10.0172 O   0  3  0  0  0  0  0  0  0  0  0  0
    3.7124    0.7922   12.1977 C   0  0  0  0  0  0  0  0  0  0  0  0
    2.7899    0.7621   13.2944 O   0  0  0  0  0  0  0  0  0  0  0  0
    3.2629   -0.4694   12.7152 O   0  0  0  0  0  0  0  0  0  0  0  0
    5.2663    3.6966   11.1388 O   0  0  0  0  0  0  0  0  0  0  0  0
    1.0793   -1.4874    6.0531 C   0  0  0  0  0  0  0  0  0  0  0  0
    0.2628   -1.5189    4.9218 C   0  0  0  0  0  0  0  0  0  0  0  0
   -0.1410   -2.7430    4.4344 C   0  0  0  0  0  0  0  0  0  0  0  0
   -0.9701   -2.7685    3.3834 F   0  0  0  0  0  0  0  0  0  0  0  0
    0.2190   -3.9223    4.9704 N   0  0  0  0  0  0  0  0  0  0  0  0
    0.9509   -3.9072    6.1022 C   0  0  0  0  0  0  0  0  0  0  0  0
    1.3869   -2.7109    6.7051 C   0  0  0  0  0  0  0  0  0  0  0  0
    2.0213   -2.7337    7.9005 N   0  0  0  0  0  0  0  0  0  0  0  0
    2.1785   -3.9058    8.5555 C   0  0  0  0  0  0  0  0  0  0  0  0
    2.5649   -3.7597    9.9618 C   0  0  0  0  0  0  0  0  0  0  0  0
    2.7582   -2.6426   10.4495 O   0  0  0  0  0  0  0  0  0  0  0  0
    2.5734   -5.0398   10.7751 C   0  0  0  0  0  0  0  0  0  0  0  0
    2.5907   -4.9759   11.9970 O   0  0  0  0  0  0  0  0  0  0  0  0
    2.5715   -6.3393    9.9762 C   0  0  1  0  0  0  0  0  0  0  0  0
    2.0312   -6.3286    8.6544 O   0  0  0  0  0  0  0  0  0  0  0  0
    1.8662   -5.1300    8.0266 C   0  0  0  0  0  0  0  0  0  0  0  0
    1.2918   -5.1237    6.7434 C   0  0  0  0  0  0  0  0  0  0  0  0
    0.8194   -6.3485    6.1948 N   0  0  0  0  0  0  0  0  0  0  0  0
    3.9477   -6.9305    9.9409 C   0  0  1  0  0  0  0  0  0  0  0  0
    4.9772   -6.1001    9.3481 O   0  0  0  0  0  0  0  0  0  0  0  0
    4.3218   -7.6556   11.1065 O   0  0  0  0  0  0  0  0  0  0  0  0
    4.2245   -8.3691    9.9614 C   0  0  0  0  0  0  0  0  0  0  0  0
    5.0646   -9.0040    9.3740 O   0  0  0  0  0  0  0  0  0  0  0  0
    3.8247    1.6058    3.9622 C   0  0  0  0  0  0  0  0  0  0  0  0
    4.1820    0.4712    3.6833 O   0  0  0  0  0  0  0  0  0  0  0  0
    4.8099    2.6364    4.4220 C   0  0  0  0  0  0  0  0  0  0  0  0
    5.7286    2.3215    5.1619 O   0  0  0  0  0  0  0  0  0  0  0  0
    4.5315    4.0775    4.0928 C   0  0  0  0  0  0  0  0  0  0  0  0
    5.4306    4.8665    3.8681 O   0  0  0  0  0  0  0  0  0  0  0  0
  1  2  1  0  0  0  0
  2  3  2  0  0  0  0
  3  4  1  0  0  0  0
  3 53  1  0  0  0  0
  4  5  1  0  0  0  0
  5  6  1  1  0  0  0
  5 49  1  0  0  0  0
  6  7  1  0  0  0  0
  7  8  2  0  0  0  0
  7 12  1  0  0  0  0
  8  9  1  0  0  0  0
  8 26  1  0  0  0  0
  9 10  1  0  0  0  0
 10 11  2  0  0  0  0
 10 21  1  0  0  0  0
 11 12  1  0  0  0  0
 11 13  1  0  0  0  0
 13 14  1  0  0  0  0
 13 19  1  0  0  0  0
 14 15  1  0  0  0  0
 15 16  2  0  0  0  0
 15 17  1  0  0  0  0
 17 18  1  0  0  0  0
 18 19  1  0  0  0  0
 18 25  1  0  0  0  0
 19 20  2  0  0  0  0
 20 21  1  0  0  0  0
 20 22  1  0  0  0  0
 22 23  1  0  0  0  0
 22 24  1  0  0  0  0
 23 24  1  0  0  0  0
 26 27  2  0  0  0  0
 26 32  1  0  0  0  0
 27 28  1  0  0  0  0
 28 29  1  0  0  0  0
 28 30  2  0  0  0  0
 30 31  1  0  0  0  0
 31 32  2  0  0  0  0
 31 42  1  0  0  0  0
 32 33  1  0  0  0  0
 33 34  2  0  0  0  0
 34 35  1  0  0  0  0
 34 41  1  0  0  0  0
 35 36  2  0  0  0  0
 35 37  1  0  0  0  0
 37 38  2  0  0  0  0
 39 37  1  6  0  0  0
 39 40  1  0  0  0  0
 39 44  1  0  0  0  0
 40 41  1  0  0  0  0
 41 42  2  0  0  0  0
 42 43  1  0  0  0  0
 44 45  1  6  0  0  0
 44 46  1  0  0  0  0
 44 47  1  0  0  0  0
 46 47  1  0  0  0  0
 47 48  2  0  0  0  0
 49 50  2  0  0  0  0
 49 51  1  0  0  0  0
 51 52  2  0  0  0  0
 51 53  1  0  0  0  0
 53 54  2  0  0  0  0
M  CHG  1  21   1
M  END
$$$$