
 OpenBabel11212020103D

 54 62  0  0  1  0  0  0  0  0999 V2000
   -1.6428    1.8711   -3.7092 O   0  0  0  0  0  0  0  0  0  0  0  0
   -1.4169    1.2927   -2.4495 N   0  0  0  0  0  0  0  0  0  0  0  0
   -0.2092    0.8409   -2.3491 C   0  0  0  0  0  0  0  0  0  0  0  0
    0.6647    0.9136   -3.3682 O   0  0  0  0  0  0  0  0  0  0  0  0
    2.0773    0.7092   -3.2378 C   0  0  2  0  0  0  0  0  0  0  0  0
    2.6173    0.2306   -4.4919 O   0  0  0  0  0  0  0  0  0  0  0  0
    2.4506    1.0552   -5.5981 C   0  0  0  0  0  0  0  0  0  0  0  0
    2.3394    0.5375   -6.8398 C   0  0  0  0  0  0  0  0  0  0  0  0
    2.2151    1.3329   -7.9837 O   0  0  0  0  0  0  0  0  0  0  0  0
    2.2933    2.7279   -7.8698 C   0  0  0  0  0  0  0  0  0  0  0  0
    2.4582    3.3237   -6.6738 C   0  0  0  0  0  0  0  0  0  0  0  0
    2.4911    2.5488   -5.3911 C   0  0  0  0  0  0  0  0  0  0  0  0
    2.6183    4.8152   -6.5341 C   0  0  3  0  0  0  0  0  0  0  0  0
    3.9334    5.0430   -6.0573 O   0  0  0  0  0  0  0  0  0  0  0  0
    4.3531    6.3309   -5.9275 C   0  0  0  0  0  0  0  0  0  0  0  0
    5.3461    6.6092   -5.2766 O   0  0  0  0  0  0  0  0  0  0  0  0
    3.6122    7.2656   -6.5679 O   0  0  0  0  0  0  0  0  0  0  0  0
    2.7231    6.9667   -7.6375 C   0  0  3  0  0  0  0  0  0  0  0  0
    2.5294    5.5063   -7.8377 C   0  0  0  0  0  0  0  0  0  0  0  0
    2.3255    4.8560   -9.0039 C   0  0  0  0  0  0  0  0  0  0  0  0
    2.2110    3.4726   -9.0264 O   0  3  0  0  0  0  0  0  0  0  0  0
    2.2406    5.5313  -10.3189 C   0  0  0  0  0  0  0  0  0  0  0  0
    3.4094    5.7146  -11.1265 O   0  0  0  0  0  0  0  0  0  0  0  0
    2.3969    4.7736  -11.5321 O   0  0  0  0  0  0  0  0  0  0  0  0
    1.4400    7.4626   -7.3148 O   0  0  0  0  0  0  0  0  0  0  0  0
    2.3895   -0.9231   -7.0969 C   0  0  0  0  0  0  0  0  0  0  0  0
    3.6328   -1.5063   -7.3364 C   0  0  0  0  0  0  0  0  0  0  0  0
    3.7443   -2.8228   -7.5496 N   0  3  0  0  0  0  0  0  0  0  0  0
    4.9605   -3.3506   -7.7890 F   0  0  0  0  0  0  0  0  0  0  0  0
    2.7051   -3.6325   -7.5444 N   0  0  0  0  0  0  0  0  0  0  0  0
    1.4893   -3.1493   -7.2785 C   0  0  0  0  0  0  0  0  0  0  0  0
    1.2651   -1.7758   -7.0470 C   0  0  0  0  0  0  0  0  0  0  0  0
   -0.0523   -1.3493   -6.7531 C   0  0  0  0  0  0  0  0  0  0  0  0
   -1.1003   -2.2764   -6.6407 C   0  0  0  0  0  0  0  0  0  0  0  0
   -2.4383   -1.8372   -6.2328 C   0  0  0  0  0  0  0  0  0  0  0  0
   -2.6818   -0.6569   -6.0483 O   0  0  0  0  0  0  0  0  0  0  0  0
   -3.4734   -2.9241   -6.0550 C   0  0  0  0  0  0  0  0  0  0  0  0
   -4.6584   -2.6804   -6.2133 O   0  0  0  0  0  0  0  0  0  0  0  0
   -2.8864   -4.2807   -5.7370 C   0  0  1  0  0  0  0  0  0  0  0  0
   -1.8042   -4.6039   -6.6358 O   0  0  0  0  0  0  0  0  0  0  0  0
   -0.8701   -3.6270   -6.8440 C   0  0  0  0  0  0  0  0  0  0  0  0
    0.4154   -4.0356   -7.1981 C   0  0  0  0  0  0  0  0  0  0  0  0
    0.6460   -5.3434   -7.3985 F   0  0  0  0  0  0  0  0  0  0  0  0
   -2.5228   -4.4305   -4.2769 C   0  0  1  0  0  0  0  0  0  0  0  0
   -3.6066   -4.2756   -3.3441 O   0  0  0  0  0  0  0  0  0  0  0  0
   -1.6089   -5.4972   -3.9724 O   0  0  0  0  0  0  0  0  0  0  0  0
   -1.1952   -4.2556   -3.7234 C   0  0  0  0  0  0  0  0  0  0  0  0
   -0.2151   -3.6207   -4.0937 O   0  0  0  0  0  0  0  0  0  0  0  0
    2.5136   -0.2330   -2.1321 C   0  0  0  0  0  0  0  0  0  0  0  0
    3.3674   -1.0990   -2.2065 O   0  0  0  0  0  0  0  0  0  0  0  0
    1.7395    0.0330   -0.8817 C   0  0  0  0  0  0  0  0  0  0  0  0
    2.2967    0.2866    0.1672 O   0  0  0  0  0  0  0  0  0  0  0  0
    0.2604    0.1580   -1.0758 C   0  0  0  0  0  0  0  0  0  0  0  0
   -0.5167   -0.3814   -0.3103 O   0  0  0  0  0  0  0  0  0  0  0  0
  1  2  1  0  0  0  0
  2  3  2  0  0  0  0
  3  4  1  0  0  0  0
  3 53  1  0  0  0  0
  4  5  1  0  0  0  0
  5  6  1  6  0  0  0
  5 49  1  0  0  0  0
  6  7  1  0  0  0  0
  7  8  2  0  0  0  0
  7 12  1  0  0  0  0
  8  9  1  0  0  0  0
  8 26  1  0  0  0  0
  9 10  1  0  0  0  0
 10 11  2  0  0  0  0
 10 21  1  0  0  0  0
 11 12  1  0  0  0  0
 11 13  1  0  0  0  0
 13 14  1  0  0  0  0
 13 19  1  0  0  0  0
 14 15  1  0  0  0  0
 15 16  2  0  0  0  0
 15 17  1  0  0  0  0
 17 18  1  0  0  0  0
 18 19  1  0  0  0  0
 18 25  1  0  0  0  0
 19 20  2  0  0  0  0
 20 21  1  0  0  0  0
 20 22  1  0  0  0  0
 22 23  1  0  0  0  0
 22 24  1  0  0  0  0
 23 24  1  0  0  0  0
 26 27  2  0  0  0  0
 26 32  1  0  0  0  0
 27 28  1  0  0  0  0
 28 29  1  0  0  0  0
 28 30  2  0  0  0  0
 30 31  1  0  0  0  0
 31 32  2  0  0  0  0
 31 42  1  0  0  0  0
 32 33  1  0  0  0  0
 33 34  2  0  0  0  0
 34 35  1  0  0  0  0
 34 41  1  0  0  0  0
 35 36  2  0  0  0  0
 35 37  1  0  0  0  0
 37 38  2  0  0  0  0
 39 37  1  1  0  0  0
 39 40  1  0  0  0  0
 39 44  1  0  0  0  0
 40 41  1  0  0  0  0
 41 42  2  0  0  0  0
 42 43  1  0  0  0  0
 44 45  1  1  0  0  0
 44 46  1  0  0  0  0
 44 47  1  0  0  0  0
 46 47  1  0  0  0  0
 47 48  2  0  0  0  0
 49 50  2  0  0  0  0
 49 51  1  0  0  0  0
 51 52  2  0  0  0  0
 51 53  1  0  0  0  0
 53 54  2  0  0  0  0
M  CHG  2  21   1  28   1
M  END
$$$$