
 OpenBabel11212016453D

 54 62  0  0  1  0  0  0  0  0999 V2000
    0.2568   -3.8205   -4.1088 O   0  0  0  0  0  0  0  0  0  0  0  0
    0.4221   -2.6176   -3.4683 C   0  0  0  0  0  0  0  0  0  0  0  0
    0.7122   -2.5174   -2.1639 C   0  0  0  0  0  0  0  0  0  0  0  0
    0.8212   -3.6444   -1.3569 O   0  0  0  0  0  0  0  0  0  0  0  0
    1.7720   -3.4945   -0.3077 C   0  0  2  0  0  0  0  0  0  0  0  0
    1.8109   -4.6524    0.5674 O   0  0  0  0  0  0  0  0  0  0  0  0
    2.1713   -5.8829    0.0705 C   0  0  0  0  0  0  0  0  0  0  0  0
    1.7988   -7.0327    0.6883 C   0  0  0  0  0  0  0  0  0  0  0  0
    2.1674   -8.2801    0.1546 O   0  0  0  0  0  0  0  0  0  0  0  0
    2.8450   -8.3619   -1.0662 C   0  0  0  0  0  0  0  0  0  0  0  0
    3.2564   -7.2565   -1.7095 C   0  0  0  0  0  0  0  0  0  0  0  0
    2.9961   -5.8900   -1.1871 C   0  0  0  0  0  0  0  0  0  0  0  0
    4.0027   -7.3008   -3.0099 C   0  0  3  0  0  0  0  0  0  0  0  0
    5.2862   -6.7382   -2.7737 O   0  0  0  0  0  0  0  0  0  0  0  0
    6.1715   -6.8000   -3.7882 C   0  0  0  0  0  0  0  0  0  0  0  0
    7.2382   -6.0997   -3.7493 N   0  0  0  0  0  0  0  0  0  0  0  0
    5.9083   -7.6150   -4.8238 O   0  0  0  0  0  0  0  0  0  0  0  0
    4.9545   -8.6703   -4.7556 C   0  0  3  0  0  0  0  0  0  0  0  0
    4.2131   -8.6891   -3.4683 C   0  0  0  0  0  0  0  0  0  0  0  0
    3.7779   -9.7679   -2.7818 C   0  0  0  0  0  0  0  0  0  0  0  0
    3.0943   -9.6132   -1.5837 O   0  3  0  0  0  0  0  0  0  0  0  0
    4.0012  -11.1611   -3.2210 C   0  0  0  0  0  0  0  0  0  0  0  0
    5.1709  -11.8796   -2.8122 O   0  0  0  0  0  0  0  0  0  0  0  0
    3.8812  -12.2445   -2.2836 O   0  0  0  0  0  0  0  0  0  0  0  0
    3.9559   -8.4641   -5.7360 O   0  0  0  0  0  0  0  0  0  0  0  0
    0.9774   -7.1063    1.9648 C   0  0  0  0  0  0  0  0  0  0  0  0
    1.1287   -6.1068    2.9328 C   0  0  0  0  0  0  0  0  0  0  0  0
    0.4428   -6.1306    4.0814 N   0  3  0  0  0  0  0  0  0  0  0  0
    0.6424   -5.1481    4.9821 F   0  0  0  0  0  0  0  0  0  0  0  0
   -0.4076   -7.0892    4.3849 N   0  0  0  0  0  0  0  0  0  0  0  0
   -0.6204   -8.0865    3.5272 C   0  0  0  0  0  0  0  0  0  0  0  0
    0.0550   -8.1528    2.2849 C   0  0  0  0  0  0  0  0  0  0  0  0
   -0.2649   -9.2545    1.4524 C   0  0  0  0  0  0  0  0  0  0  0  0
   -1.1875  -10.2425    1.8330 C   0  0  0  0  0  0  0  0  0  0  0  0
   -1.4844  -11.3479    0.9182 C   0  0  0  0  0  0  0  0  0  0  0  0
   -0.9086  -11.4416   -0.1546 O   0  0  0  0  0  0  0  0  0  0  0  0
   -2.5056  -12.3468    1.4047 C   0  0  0  0  0  0  0  0  0  0  0  0
   -2.4189  -13.5193    1.0787 O   0  0  0  0  0  0  0  0  0  0  0  0
   -3.5211  -11.7491    2.3518 C   0  0  1  0  0  0  0  0  0  0  0  0
   -2.8623  -11.0102    3.4107 O   0  0  0  0  0  0  0  0  0  0  0  0
   -1.8587  -10.1562    3.0363 C   0  0  0  0  0  0  0  0  0  0  0  0
   -1.5480   -9.0828    3.8732 C   0  0  0  0  0  0  0  0  0  0  0  0
   -2.1984   -8.9735    5.0437 F   0  0  0  0  0  0  0  0  0  0  0  0
   -4.5744  -10.9425    1.6235 C   0  0  1  0  0  0  0  0  0  0  0  0
   -5.3370  -11.6532    0.6316 O   0  0  0  0  0  0  0  0  0  0  0  0
   -5.3324  -10.0353    2.4394 O   0  0  0  0  0  0  0  0  0  0  0  0
   -4.5724   -9.4980    1.4864 C   0  0  0  0  0  0  0  0  0  0  0  0
   -3.6776   -8.6641    1.5086 O   0  0  0  0  0  0  0  0  0  0  0  0
    1.3636   -2.3914    0.6410 C   0  0  0  0  0  0  0  0  0  0  0  0
    1.3603   -2.4910    1.8625 O   0  0  0  0  0  0  0  0  0  0  0  0
    0.9361   -1.1374   -0.0752 C   0  0  0  0  0  0  0  0  0  0  0  0
    0.6152   -0.1524    0.5648 O   0  0  0  0  0  0  0  0  0  0  0  0
    0.8901   -1.1500   -1.5901 C   0  0  0  0  0  0  0  0  0  0  0  0
    1.0607   -0.1417   -2.2496 O   0  0  0  0  0  0  0  0  0  0  0  0
  1  2  1  0  0  0  0
  2  3  2  0  0  0  0
  3  4  1  0  0  0  0
  3 53  1  0  0  0  0
  4  5  1  0  0  0  0
  5  6  1  1  0  0  0
  5 49  1  0  0  0  0
  6  7  1  0  0  0  0
  7  8  2  0  0  0  0
  7 12  1  0  0  0  0
  8  9  1  0  0  0  0
  8 26  1  0  0  0  0
  9 10  1  0  0  0  0
 10 11  2  0  0  0  0
 10 21  1  0  0  0  0
 11 12  1  0  0  0  0
 11 13  1  0  0  0  0
 13 14  1  0  0  0  0
 13 19  1  0  0  0  0
 14 15  1  0  0  0  0
 15 16  2  0  0  0  0
 15 17  1  0  0  0  0
 17 18  1  0  0  0  0
 18 19  1  0  0  0  0
 18 25  1  0  0  0  0
 19 20  2  0  0  0  0
 20 21  1  0  0  0  0
 20 22  1  0  0  0  0
 22 23  1  0  0  0  0
 22 24  1  0  0  0  0
 23 24  1  0  0  0  0
 26 27  2  0  0  0  0
 26 32  1  0  0  0  0
 27 28  1  0  0  0  0
 28 29  1  0  0  0  0
 28 30  2  0  0  0  0
 30 31  1  0  0  0  0
 31 32  2  0  0  0  0
 31 42  1  0  0  0  0
 32 33  1  0  0  0  0
 33 34  2  0  0  0  0
 34 35  1  0  0  0  0
 34 41  1  0  0  0  0
 35 36  2  0  0  0  0
 35 37  1  0  0  0  0
 37 38  2  0  0  0  0
 39 37  1  6  0  0  0
 39 40  1  0  0  0  0
 39 44  1  0  0  0  0
 40 41  1  0  0  0  0
 41 42  2  0  0  0  0
 42 43  1  0  0  0  0
 44 45  1  6  0  0  0
 44 46  1  0  0  0  0
 44 47  1  0  0  0  0
 46 47  1  0  0  0  0
 47 48  2  0  0  0  0
 49 50  2  0  0  0  0
 49 51  1  0  0  0  0
 51 52  2  0  0  0  0
 51 53  1  0  0  0  0
 53 54  2  0  0  0  0
M  CHG  2  21   1  28   1
M  END
$$$$