
 OpenBabel09252022563D

 44 51  0  0  1  0  0  0  0  0999 V2000
    6.3032   -6.2795    6.1549 O   0  0  0  0  0  0  0  0  0  0  0  0
    6.2342   -4.9460    6.4613 C   0  0  0  0  0  0  0  0  0  0  0  0
    5.5811   -4.0245    5.7390 C   0  0  0  0  0  0  0  0  0  0  0  0
    4.9386   -4.3564    4.5587 O   0  0  0  0  0  0  0  0  0  0  0  0
    3.7074   -3.6747    4.3169 C   0  0  2  0  0  0  0  0  0  0  0  0
    3.2059   -3.9231    2.9789 O   0  0  0  0  0  0  0  0  0  0  0  0
    2.9007   -5.2276    2.6167 C   0  0  0  0  0  0  0  0  0  0  0  0
    3.0346   -5.6636    1.3408 C   0  0  0  0  0  0  0  0  0  0  0  0
    2.8550   -7.0020    0.9717 O   0  0  0  0  0  0  0  0  0  0  0  0
    2.4930   -7.9332    1.9434 C   0  0  0  0  0  0  0  0  0  0  0  0
    2.1754   -7.5457    3.1886 C   0  0  0  0  0  0  0  0  0  0  0  0
    2.3121   -6.1418    3.6616 C   0  0  0  0  0  0  0  0  0  0  0  0
    1.6787   -8.5704    4.1479 C   0  0  0  0  0  0  0  0  0  0  0  0
    1.2128   -8.2181    5.2994 N   0  0  0  0  0  0  0  0  0  0  0  0
    0.7181   -9.1887    6.1468 C   0  0  0  0  0  0  0  0  0  0  0  0
    0.1093   -8.8218    7.1494 O   0  0  0  0  0  0  0  0  0  0  0  0
    0.8551  -10.5400    5.9103 N   0  0  0  0  0  0  0  0  0  0  0  0
    1.3278  -10.9210    4.7764 C   0  0  0  0  0  0  0  0  0  0  0  0
    1.7413   -9.9834    3.7243 C   0  0  0  0  0  0  0  0  0  0  0  0
    2.1584  -10.2922    2.4786 C   0  0  0  0  0  0  0  0  0  0  0  0
    2.4609   -9.2612    1.5864 N   0  0  0  0  0  0  0  0  0  0  0  0
    2.3102  -11.6738    1.9655 C   0  0  0  0  0  0  0  0  0  0  0  0
    3.3140  -12.0228    0.9969 O   0  0  0  0  0  0  0  0  0  0  0  0
    3.4228  -12.5004    2.3514 O   0  0  0  0  0  0  0  0  0  0  0  0
    3.3763   -4.7638    0.2128 C   0  0  0  0  0  0  0  0  0  0  0  0
    4.6995   -4.6379   -0.0193 N   0  0  0  0  0  0  0  0  0  0  0  0
    5.0383   -3.7755   -0.9839 C   0  0  0  0  0  0  0  0  0  0  0  0
    4.1996   -3.0284   -1.7141 N   0  0  0  0  0  0  0  0  0  0  0  0
    2.8919   -3.1633   -1.4781 C   0  0  0  0  0  0  0  0  0  0  0  0
    2.3924   -4.0597   -0.5233 C   0  0  0  0  0  0  0  0  0  0  0  0
    0.9869   -4.1668   -0.3784 C   0  0  0  0  0  0  0  0  0  0  0  0
    0.1203   -3.3389   -1.1228 C   0  0  0  0  0  0  0  0  0  0  0  0
   -1.2637   -3.3479   -0.9951 C   0  0  0  0  0  0  0  0  0  0  0  0
   -2.0922   -2.5451   -1.6887 N   0  0  0  0  0  0  0  0  0  0  0  0
   -1.4935   -1.7061   -2.5428 C   0  0  0  0  0  0  0  0  0  0  0  0
   -0.1715   -1.6113   -2.7589 N   0  0  0  0  0  0  0  0  0  0  0  0
    0.6254   -2.4235   -2.0452 C   0  0  0  0  0  0  0  0  0  0  0  0
    2.0040   -2.3735   -2.2077 C   0  0  0  0  0  0  0  0  0  0  0  0
    3.7651   -2.1593    4.4687 C   0  0  0  0  0  0  0  0  0  0  0  0
    3.0972   -1.3566    3.8298 O   0  0  0  0  0  0  0  0  0  0  0  0
    4.6513   -1.6856    5.5894 C   0  0  0  0  0  0  0  0  0  0  0  0
    4.5437   -0.5401    6.0041 O   0  0  0  0  0  0  0  0  0  0  0  0
    5.6289   -2.6261    6.2445 C   0  0  0  0  0  0  0  0  0  0  0  0
    6.3753   -2.2462    7.1328 O   0  0  0  0  0  0  0  0  0  0  0  0
  1  2  1  0  0  0  0
  2  3  2  0  0  0  0
  3  4  1  0  0  0  0
  3 43  1  0  0  0  0
  4  5  1  0  0  0  0
  5  6  1  6  0  0  0
  5 39  1  0  0  0  0
  6  7  1  0  0  0  0
  7  8  2  0  0  0  0
  7 12  1  0  0  0  0
  8  9  1  0  0  0  0
  8 25  1  0  0  0  0
  9 10  1  0  0  0  0
 10 11  2  0  0  0  0
 10 21  1  0  0  0  0
 11 12  1  0  0  0  0
 11 13  1  0  0  0  0
 13 14  2  0  0  0  0
 13 19  1  0  0  0  0
 14 15  1  0  0  0  0
 15 16  2  0  0  0  0
 15 17  1  0  0  0  0
 17 18  2  0  0  0  0
 18 19  1  0  0  0  0
 19 20  2  0  0  0  0
 20 21  1  0  0  0  0
 20 22  1  0  0  0  0
 22 23  1  0  0  0  0
 22 24  1  0  0  0  0
 23 24  1  0  0  0  0
 25 26  2  0  0  0  0
 25 30  1  0  0  0  0
 26 27  1  0  0  0  0
 27 28  2  0  0  0  0
 28 29  1  0  0  0  0
 29 30  2  0  0  0  0
 29 38  1  0  0  0  0
 30 31  1  0  0  0  0
 31 32  2  0  0  0  0
 32 33  1  0  0  0  0
 32 37  1  0  0  0  0
 33 34  2  0  0  0  0
 34 35  1  0  0  0  0
 35 36  2  0  0  0  0
 36 37  1  0  0  0  0
 37 38  2  0  0  0  0
 39 40  2  0  0  0  0
 39 41  1  0  0  0  0
 41 42  2  0  0  0  0
 41 43  1  0  0  0  0
 43 44  2  0  0  0  0
M  END
$$$$