
 OpenBabel10232011143D

 81 94  0  0  1  0  0  0  0  0999 V2000
    2.3902   -0.0387   -3.9860 O   0  0  0  0  0  0  0  0  0  0  0  0
    2.2389   -0.0406   -2.5528 C   0  0  3  0  0  0  0  0  0  0  0  0
    3.0192    1.1125   -1.8901 C   0  0  3  0  0  0  0  0  0  0  0  0
    4.4377    0.9700   -2.1699 O   0  0  0  0  0  0  0  0  0  0  0  0
    4.9960   -0.2577   -1.9287 C   0  0  0  0  0  0  0  0  0  0  0  0
    4.2365   -1.3813   -1.7297 C   0  0  0  0  0  0  0  0  0  0  0  0
    2.7624   -1.3927   -2.0434 C   0  0  3  0  0  0  0  0  0  0  0  0
    2.5206   -2.4393   -2.9990 O   0  0  0  0  0  0  0  0  0  0  0  0
    4.8466   -2.4999   -1.1385 C   0  0  0  0  0  0  0  0  0  0  0  0
    6.2289   -2.5175   -0.7817 C   0  0  0  0  0  0  0  0  0  0  0  0
    7.0421   -1.5002   -1.2651 C   0  0  0  0  0  0  0  0  0  0  0  0
    6.4008   -0.3352   -1.8133 C   0  0  0  0  0  0  0  0  0  0  0  0
    7.1212    0.7500   -2.0887 F   0  0  0  0  0  0  0  0  0  0  0  0
    8.4462   -1.6861   -1.1213 C   0  0  0  0  0  0  0  0  0  0  0  0
    9.5979   -0.6036   -1.7955 Cl  0  0  0  0  0  0  0  0  0  0  0  0
    8.9849   -2.8091   -0.4302 C   0  0  0  0  0  0  0  0  0  0  0  0
    8.1873   -3.7438    0.2496 C   0  0  0  0  0  0  0  0  0  0  0  0
    6.7929   -3.5315    0.0826 C   0  0  0  0  0  0  0  0  0  0  0  0
    5.6481   -4.3965    1.1243 Cl  0  0  0  0  0  0  0  0  0  0  0  0
    8.8204   -4.9136    1.0113 C   0  0  0  0  0  0  0  0  0  0  0  0
    8.1977   -6.1827    1.0659 C   0  0  0  0  0  0  0  0  0  0  0  0
    8.6865   -7.4206    1.7097 C   0  0  0  0  0  0  0  0  0  0  0  0
    8.1004   -8.8419    2.0668 C   0  0  0  0  0  0  0  0  0  0  0  0
    8.9955   -9.8356    2.5311 C   0  0  0  0  0  0  0  0  0  0  0  0
    8.6516  -11.1890    2.7664 N   0  0  0  0  0  0  0  0  0  0  0  0
   10.3133   -9.4520    2.7380 C   0  0  0  0  0  0  0  0  0  0  0  0
   10.7865   -8.2304    2.5227 N   0  0  0  0  0  0  0  0  0  0  0  0
   10.0517   -7.2381    2.0450 N   0  3  0  0  0  0  0  0  0  0  0  0
   10.7015   -6.0202    1.9564 N   0  3  0  0  0  0  0  0  0  0  0  0
   10.0585   -4.8609    1.6654 C   0  0  0  0  0  0  0  0  0  0  0  0
   10.6536   -3.5830    2.1955 C   0  0  0  0  0  0  0  0  0  0  0  0
   12.4185   -5.9872    2.1804 Cl  0  0  0  0  0  0  0  0  0  0  0  0
    6.5082   -9.3092    2.0079 N   0  3  0  0  0  0  0  0  0  0  0  0
    5.9630  -10.3204    2.8614 N   0  3  0  0  0  0  0  0  0  0  0  0
    6.5590  -10.5446    4.4787 Cl  0  0  0  0  0  0  0  0  0  0  0  0
    4.6851  -10.8541    2.6865 C   0  0  0  0  0  0  0  0  0  0  0  0
    3.6904  -10.2941    1.8416 C   0  0  0  0  0  0  0  0  0  0  0  0
    4.1413   -9.2214    1.0946 C   0  0  0  0  0  0  0  0  0  0  0  0
    5.5592   -8.7778    1.1321 C   0  0  0  0  0  0  0  0  0  0  0  0
    5.8922   -7.7330    0.2685 N   0  0  0  0  0  0  0  0  0  0  0  0
    3.2264   -8.5911    0.3486 N   0  0  0  0  0  0  0  0  0  0  0  0
    1.9079   -8.8876    0.2610 N   0  3  0  0  0  0  0  0  0  0  0  0
    1.3644   -9.9557    0.9400 C   0  0  0  0  0  0  0  0  0  0  0  0
    2.3037  -10.6630    1.7403 N   0  3  0  0  0  0  0  0  0  0  0  0
    1.8475  -11.7242    2.4775 N   0  0  0  0  0  0  0  0  0  0  0  0
    0.5463  -12.1053    2.4658 N   0  3  0  0  0  0  0  0  0  0  0  0
    0.0945  -13.2637    3.3153 C   0  0  0  0  0  0  0  0  0  0  0  0
   -0.3421  -11.4475    1.7074 C   0  0  0  0  0  0  0  0  0  0  0  0
    0.0514  -10.3921    0.9583 N   0  3  0  0  0  0  0  0  0  0  0  0
   -1.2236   -9.6760    0.0567 Cl  0  0  0  0  0  0  0  0  0  0  0  0
    1.0347   -7.7838   -0.7159 Cl  0  0  0  0  0  0  0  0  0  0  0  0
    2.7177    1.3424   -0.3537 C   0  0  3  0  0  0  0  0  0  0  0  0
    1.2149    1.6636   -0.1574 C   0  0  0  0  0  0  0  0  0  0  0  0
    0.8722    2.1629    1.2417 C   0  0  0  0  0  0  0  0  0  0  0  0
    1.7004    3.3509    1.6177 C   0  0  0  0  0  0  0  0  0  0  0  0
    3.0364    3.3962    1.2642 C   0  0  0  0  0  0  0  0  0  0  0  0
    3.6468    2.4542    0.2415 C   0  0  3  0  0  0  0  0  0  0  0  0
    4.9555    1.8835    0.8369 C   0  0  3  0  0  0  0  0  0  0  0  0
    4.6642    0.8486    1.6897 F   0  0  0  0  0  0  0  0  0  0  0  0
    5.8362    2.8978    1.5832 C   0  0  0  0  0  0  0  0  0  0  0  0
    5.3279    4.3370    1.4182 C   0  0  3  0  0  0  0  0  0  0  0  0
    3.8752    4.3619    1.8626 C   0  0  0  0  0  0  0  0  0  0  0  0
    3.3823    5.2649    2.8415 C   0  0  0  0  0  0  0  0  0  0  0  0
    1.9699    5.4118    2.9807 C   0  0  0  0  0  0  0  0  0  0  0  0
    1.1720    4.3954    2.3918 C   0  0  0  0  0  0  0  0  0  0  0  0
    1.2910    6.5337    3.7207 C   0  0  0  0  0  0  0  0  0  0  0  0
    0.0495    6.3566    4.3683 C   0  0  0  0  0  0  0  0  0  0  0  0
   -0.5915    7.3989    5.0611 C   0  0  0  0  0  0  0  0  0  0  0  0
   -1.9875    7.2508    5.5072 C   0  0  0  0  0  0  0  0  0  0  0  0
   -2.6885    8.3240    5.8938 C   0  0  0  0  0  0  0  0  0  0  0  0
   -2.0691    9.6935    6.0163 C   0  0  0  0  0  0  0  0  0  0  0  0
   -0.5490    9.5995    6.2498 C   0  0  3  0  0  0  0  0  0  0  0  0
    0.0679    8.6243    5.2605 C   0  0  0  0  0  0  0  0  0  0  0  0
    1.2562    8.8489    4.5706 C   0  0  0  0  0  0  0  0  0  0  0  0
    1.8003    7.8455    3.7629 C   0  0  0  0  0  0  0  0  0  0  0  0
    2.8339    8.1984    2.9848 F   0  0  0  0  0  0  0  0  0  0  0  0
    0.0828   10.9887    6.3267 C   0  0  0  0  0  0  0  0  0  0  0  0
    4.3997    5.9759    3.7411 C   0  0  3  0  0  0  0  0  0  0  0  0
    5.8426    5.4686    3.5862 C   0  0  0  0  0  0  0  0  0  0  0  0
    6.2099    5.3658    2.1200 C   0  0  0  0  0  0  0  0  0  0  0  0
    3.9827    5.7302    5.4756 Cl  0  0  0  0  0  0  0  0  0  0  0  0
  1  2  1  0  0  0  0
  2  3  1  0  0  0  0
  2  7  1  0  0  0  0
  3  4  1  0  0  0  0
  3 52  1  0  0  0  0
  4  5  1  0  0  0  0
  5  6  2  0  0  0  0
  5 12  1  0  0  0  0
  6  7  1  0  0  0  0
  6  9  1  0  0  0  0
  7  8  1  0  0  0  0
  9 10  2  0  0  0  0
 10 11  1  0  0  0  0
 10 18  1  0  0  0  0
 11 12  2  0  0  0  0
 11 14  1  0  0  0  0
 12 13  1  0  0  0  0
 14 15  1  0  0  0  0
 14 16  2  0  0  0  0
 16 17  1  0  0  0  0
 17 18  2  0  0  0  0
 17 20  1  0  0  0  0
 18 19  1  0  0  0  0
 20 21  2  0  0  0  0
 20 30  1  0  0  0  0
 21 22  1  0  0  0  0
 22 23  2  0  0  0  0
 22 28  1  0  0  0  0
 23 24  1  0  0  0  0
 23 33  1  0  0  0  0
 24 25  1  0  0  0  0
 24 26  2  0  0  0  0
 26 27  1  0  0  0  0
 27 28  2  0  0  0  0
 28 29  1  0  0  0  0
 29 30  2  0  0  0  0
 29 32  1  0  0  0  0
 30 31  1  0  0  0  0
 33 34  2  0  0  0  0
 33 39  1  0  0  0  0
 34 35  1  0  0  0  0
 34 36  1  0  0  0  0
 36 37  2  0  0  0  0
 37 38  1  0  0  0  0
 37 44  1  0  0  0  0
 38 39  2  0  0  0  0
 38 41  1  0  0  0  0
 39 40  1  0  0  0  0
 41 42  2  0  0  0  0
 42 43  1  0  0  0  0
 42 51  1  0  0  0  0
 43 44  2  0  0  0  0
 43 49  1  0  0  0  0
 44 45  1  0  0  0  0
 45 46  2  0  0  0  0
 46 47  1  0  0  0  0
 46 48  1  0  0  0  0
 48 49  2  0  0  0  0
 49 50  1  0  0  0  0
 52 53  1  0  0  0  0
 52 57  1  0  0  0  0
 53 54  1  0  0  0  0
 54 55  1  0  0  0  0
 55 56  2  0  0  0  0
 55 65  1  0  0  0  0
 56 57  1  0  0  0  0
 56 62  1  0  0  0  0
 57 58  1  0  0  0  0
 58 59  1  0  0  0  0
 58 60  1  0  0  0  0
 60 61  1  0  0  0  0
 61 62  1  0  0  0  0
 61 80  1  0  0  0  0
 62 63  2  0  0  0  0
 63 64  1  0  0  0  0
 63 78  1  0  0  0  0
 64 65  2  0  0  0  0
 64 66  1  0  0  0  0
 66 67  2  0  0  0  0
 66 75  1  0  0  0  0
 67 68  1  0  0  0  0
 68 69  1  0  0  0  0
 68 73  2  0  0  0  0
 69 70  2  0  0  0  0
 70 71  1  0  0  0  0
 71 72  1  0  0  0  0
 72 73  1  0  0  0  0
 72 77  1  0  0  0  0
 73 74  1  0  0  0  0
 74 75  2  0  0  0  0
 75 76  1  0  0  0  0
 78 79  1  0  0  0  0
 78 81  1  0  0  0  0
 79 80  1  0  0  0  0
M  CHG  8  28   1  29   1  33   1  34   1  42   1  44   1  46   1  49   1
M  END
$$$$