
 OpenBabel11222023433D

 53 62  0  0  1  0  0  0  0  0999 V2000
   -8.5009   15.8088    3.0507 O   0  0  0  0  0  0  0  0  0  0  0  0
   -7.6508   16.8691    3.2492 C   0  0  0  0  0  0  0  0  0  0  0  0
   -6.3584   16.8178    2.9120 C   0  0  0  0  0  0  0  0  0  0  0  0
   -5.8092   15.6731    2.3489 O   0  0  0  0  0  0  0  0  0  0  0  0
   -5.1428   15.9894    1.1280 C   0  0  2  0  0  0  0  0  0  0  0  0
   -4.8197   14.8312    0.3348 O   0  0  0  0  0  0  0  0  0  0  0  0
   -5.7835   13.8679    0.0744 C   0  0  0  0  0  0  0  0  0  0  0  0
   -5.4827   12.7348   -0.6091 C   0  0  0  0  0  0  0  0  0  0  0  0
   -6.4953   11.8488   -1.0334 O   0  0  0  0  0  0  0  0  0  0  0  0
   -7.8328   12.2268   -0.9315 C   0  0  0  0  0  0  0  0  0  0  0  0
   -8.1911   13.2868   -0.1976 C   0  0  0  0  0  0  0  0  0  0  0  0
   -7.2062   14.1285    0.5186 C   0  0  0  0  0  0  0  0  0  0  0  0
   -9.6265   13.6633   -0.1268 C   0  0  0  0  0  0  0  0  0  0  0  0
  -10.0080   14.6526    0.6085 N   0  0  0  0  0  0  0  0  0  0  0  0
  -11.3473   14.9713    0.6697 C   0  0  0  0  0  0  0  0  0  0  0  0
  -11.6846   15.8269    1.4753 O   0  0  0  0  0  0  0  0  0  0  0  0
  -12.3021   14.3741   -0.1310 N   0  0  0  0  0  0  0  0  0  0  0  0
  -11.9486   13.3906   -0.8868 C   0  0  0  0  0  0  0  0  0  0  0  0
  -10.5744   12.8845   -0.9466 C   0  0  0  0  0  0  0  0  0  0  0  0
  -10.1234   11.8418   -1.6729 C   0  0  0  0  0  0  0  0  0  0  0  0
   -8.7715   11.4982   -1.6205 N   0  0  0  0  0  0  0  0  0  0  0  0
  -10.9701   11.0248   -2.5738 C   0  0  0  0  0  0  0  0  0  0  0  0
  -11.2271   11.4371   -3.9254 O   0  0  0  0  0  0  0  0  0  0  0  0
  -10.4064   10.2814   -3.6697 O   0  0  0  0  0  0  0  0  0  0  0  0
   -4.1242   12.3435   -1.1117 C   0  0  0  0  0  0  0  0  0  0  0  0
   -4.0921   11.7054   -2.3522 C   0  0  0  0  0  0  0  0  0  0  0  0
   -2.9378   11.3819   -2.9391 N   0  3  0  0  0  0  0  0  0  0  0  0
   -2.9628   10.7477   -4.1270 F   0  0  0  0  0  0  0  0  0  0  0  0
   -1.7682   11.6892   -2.4211 N   0  0  0  0  0  0  0  0  0  0  0  0
   -1.7113   12.2972   -1.2349 C   0  0  0  0  0  0  0  0  0  0  0  0
   -2.8691   12.5904   -0.4864 C   0  0  0  0  0  0  0  0  0  0  0  0
   -2.6747   13.1297    0.8135 C   0  0  0  0  0  0  0  0  0  0  0  0
   -1.4180   13.5721    1.2511 C   0  0  0  0  0  0  0  0  0  0  0  0
   -0.3055   13.3532    0.4659 C   0  0  0  0  0  0  0  0  0  0  0  0
   -0.4611   12.6727   -0.7385 C   0  0  0  0  0  0  0  0  0  0  0  0
    0.6280   12.4170   -1.4813 F   0  0  0  0  0  0  0  0  0  0  0  0
    0.9481   13.7549    0.8391 O   0  0  0  0  0  0  0  0  0  0  0  0
    0.9539   14.9794    1.6174 C   0  0  1  0  0  0  0  0  0  0  0  0
    0.0467   15.0143    2.7811 C   0  0  0  0  0  0  0  0  0  0  0  0
    0.2985   15.5619    3.8394 O   0  0  0  0  0  0  0  0  0  0  0  0
   -1.2889   14.3478    2.4974 C   0  0  0  0  0  0  0  0  0  0  0  0
   -2.2556   14.4997    3.2301 O   0  0  0  0  0  0  0  0  0  0  0  0
    2.2139   15.5765    1.7999 O   0  0  0  0  0  0  0  0  0  0  0  0
    1.2712   16.2818    0.9359 C   0  0  1  0  0  0  0  0  0  0  0  0
    1.3065   15.9877   -0.5189 O   0  0  0  0  0  0  0  0  0  0  0  0
    2.0727   16.9500   -0.0568 C   0  0  0  0  0  0  0  0  0  0  0  0
    2.2034   18.1042   -0.4014 O   0  0  0  0  0  0  0  0  0  0  0  0
   -3.8564   16.7198    1.4907 C   0  0  0  0  0  0  0  0  0  0  0  0
   -2.7580   16.5209    0.9816 O   0  0  0  0  0  0  0  0  0  0  0  0
   -4.0802   17.7966    2.5380 C   0  0  0  0  0  0  0  0  0  0  0  0
   -3.1478   18.4857    2.9155 O   0  0  0  0  0  0  0  0  0  0  0  0
   -5.4939   18.0229    3.0578 C   0  0  0  0  0  0  0  0  0  0  0  0
   -5.8861   19.1133    3.4319 O   0  0  0  0  0  0  0  0  0  0  0  0
  1  2  1  0  0  0  0
  2  3  2  0  0  0  0
  3  4  1  0  0  0  0
  3 52  1  0  0  0  0
  4  5  1  0  0  0  0
  5  6  1  1  0  0  0
  5 48  1  0  0  0  0
  6  7  1  0  0  0  0
  7  8  2  0  0  0  0
  7 12  1  0  0  0  0
  8  9  1  0  0  0  0
  8 25  1  0  0  0  0
  9 10  1  0  0  0  0
 10 11  2  0  0  0  0
 10 21  1  0  0  0  0
 11 12  1  0  0  0  0
 11 13  1  0  0  0  0
 13 14  2  0  0  0  0
 13 19  1  0  0  0  0
 14 15  1  0  0  0  0
 15 16  2  0  0  0  0
 15 17  1  0  0  0  0
 17 18  2  0  0  0  0
 18 19  1  0  0  0  0
 19 20  2  0  0  0  0
 20 21  1  0  0  0  0
 20 22  1  0  0  0  0
 22 23  1  0  0  0  0
 22 24  1  0  0  0  0
 23 24  1  0  0  0  0
 25 26  2  0  0  0  0
 25 31  1  0  0  0  0
 26 27  1  0  0  0  0
 27 28  1  0  0  0  0
 27 29  2  0  0  0  0
 29 30  1  0  0  0  0
 30 31  2  0  0  0  0
 30 35  1  0  0  0  0
 31 32  1  0  0  0  0
 32 33  2  0  0  0  0
 33 34  1  0  0  0  0
 33 41  1  0  0  0  0
 34 35  2  0  0  0  0
 34 37  1  0  0  0  0
 35 36  1  0  0  0  0
 38 37  1  6  0  0  0
 38 39  1  0  0  0  0
 38 43  1  0  0  0  0
 38 44  1  0  0  0  0
 39 40  2  0  0  0  0
 39 41  1  0  0  0  0
 41 42  2  0  0  0  0
 44 43  1  6  0  0  0
 44 45  1  0  0  0  0
 44 46  1  0  0  0  0
 45 46  1  0  0  0  0
 46 47  2  0  0  0  0
 48 49  2  0  0  0  0
 48 50  1  0  0  0  0
 50 51  2  0  0  0  0
 50 52  1  0  0  0  0
 52 53  2  0  0  0  0
M  CHG  1  27   1
M  END
$$$$