
 OpenBabel11252022393D

 54 63  0  0  1  0  0  0  0  0999 V2000
  -12.1063   -9.6400    6.6126 O   0  0  0  0  0  0  0  0  0  0  0  0
  -11.8489   -8.9446    7.7695 C   0  0  0  0  0  0  0  0  0  0  0  0
  -11.3810   -7.6915    7.7746 C   0  0  0  0  0  0  0  0  0  0  0  0
  -11.0771   -7.0247    6.5992 O   0  0  0  0  0  0  0  0  0  0  0  0
  -11.5064   -5.6671    6.6014 C   0  0  2  0  0  0  0  0  0  0  0  0
  -10.9904   -4.9703    5.4193 O   0  0  0  0  0  0  0  0  0  0  0  0
  -11.2804   -5.4908    4.1732 C   0  0  0  0  0  0  0  0  0  0  0  0
  -10.4062   -5.3518    3.1532 C   0  0  0  0  0  0  0  0  0  0  0  0
  -10.6443   -5.8990    1.8783 O   0  0  0  0  0  0  0  0  0  0  0  0
  -11.8496   -6.5942    1.6341 C   0  0  0  0  0  0  0  0  0  0  0  0
  -12.8086   -6.6661    2.5787 C   0  0  0  0  0  0  0  0  0  0  0  0
  -12.6343   -6.1186    3.9604 C   0  0  0  0  0  0  0  0  0  0  0  0
  -14.1336   -7.3407    2.3284 C   0  0  3  0  0  0  0  0  0  0  0  0
  -15.1364   -6.3428    2.3653 O   0  0  0  0  0  0  0  0  0  0  0  0
  -16.4157   -6.7842    2.1767 C   0  0  0  0  0  0  0  0  0  0  0  0
  -17.3751   -6.0970    2.4778 O   0  0  0  0  0  0  0  0  0  0  0  0
  -16.5196   -8.0434    1.6843 O   0  0  0  0  0  0  0  0  0  0  0  0
  -15.5548   -8.5291    0.7576 C   0  0  3  0  0  0  0  0  0  0  0  0
  -14.2107   -7.9265    0.9753 C   0  0  0  0  0  0  0  0  0  0  0  0
  -13.1969   -7.8730    0.0883 C   0  0  0  0  0  0  0  0  0  0  0  0
  -12.0268   -7.1942    0.3993 O   0  3  0  0  0  0  0  0  0  0  0  0
  -13.2477   -8.4812   -1.2622 C   0  0  0  0  0  0  0  0  0  0  0  0
  -13.6283   -7.7059   -2.4007 O   0  0  0  0  0  0  0  0  0  0  0  0
  -12.2600   -8.1217   -2.2443 O   0  0  0  0  0  0  0  0  0  0  0  0
  -15.3542   -9.9092    0.9822 O   0  0  0  0  0  0  0  0  0  0  0  0
   -9.1689   -4.5082    3.2889 C   0  0  0  0  0  0  0  0  0  0  0  0
   -9.3257   -3.1582    3.6477 C   0  0  0  0  0  0  0  0  0  0  0  0
   -8.2626   -2.3564    3.7292 N   0  3  0  0  0  0  0  0  0  0  0  0
   -8.4365   -1.0570    4.0443 F   0  0  0  0  0  0  0  0  0  0  0  0
   -7.0448   -2.7847    3.4716 N   0  0  0  0  0  0  0  0  0  0  0  0
   -6.8506   -4.0748    3.1340 C   0  0  0  0  0  0  0  0  0  0  0  0
   -7.9027   -4.9818    3.0346 N   0  3  0  0  0  0  0  0  0  0  0  0
   -7.6413   -6.2807    2.7192 C   0  0  0  0  0  0  0  0  0  0  0  0
   -6.3569   -6.7258    2.4291 C   0  0  0  0  0  0  0  0  0  0  0  0
   -5.2922   -5.8664    2.5100 C   0  0  0  0  0  0  0  0  0  0  0  0
   -5.5289   -4.5248    2.8497 C   0  0  0  0  0  0  0  0  0  0  0  0
   -4.4160   -3.6967    3.0909 N   0  0  0  0  0  0  0  0  0  0  0  0
   -3.9975   -6.2612    2.2870 O   0  0  0  0  0  0  0  0  0  0  0  0
   -3.7844   -7.5468    1.6374 C   0  0  1  0  0  0  0  0  0  0  0  0
   -4.7442   -8.6201    1.9394 C   0  0  0  0  0  0  0  0  0  0  0  0
   -4.4627   -9.7848    2.1386 O   0  0  0  0  0  0  0  0  0  0  0  0
   -6.1616   -8.1076    2.0164 C   0  0  0  0  0  0  0  0  0  0  0  0
   -7.1509   -8.7610    1.7290 O   0  0  0  0  0  0  0  0  0  0  0  0
   -3.3492   -7.5008    0.3039 O   0  0  0  0  0  0  0  0  0  0  0  0
   -2.3853   -7.9599    1.3119 C   0  0  1  0  0  0  0  0  0  0  0  0
   -1.4913   -6.9238    1.8974 O   0  0  0  0  0  0  0  0  0  0  0  0
   -1.0685   -7.6002    0.8429 C   0  0  0  0  0  0  0  0  0  0  0  0
   -0.0735   -8.2184    0.6174 O   0  0  0  0  0  0  0  0  0  0  0  0
  -10.9529   -4.8374    7.7452 C   0  0  0  0  0  0  0  0  0  0  0  0
  -10.7821   -3.6343    7.6865 O   0  0  0  0  0  0  0  0  0  0  0  0
  -10.5010   -5.6681    8.9107 C   0  0  0  0  0  0  0  0  0  0  0  0
   -9.5220   -5.3265    9.5487 O   0  0  0  0  0  0  0  0  0  0  0  0
  -11.1274   -7.0327    9.0903 C   0  0  0  0  0  0  0  0  0  0  0  0
  -11.4097   -7.4920   10.1780 O   0  0  0  0  0  0  0  0  0  0  0  0
  1  2  1  0  0  0  0
  2  3  2  0  0  0  0
  3  4  1  0  0  0  0
  3 53  1  0  0  0  0
  4  5  1  0  0  0  0
  5  6  1  6  0  0  0
  5 49  1  0  0  0  0
  6  7  1  0  0  0  0
  7  8  2  0  0  0  0
  7 12  1  0  0  0  0
  8  9  1  0  0  0  0
  8 26  1  0  0  0  0
  9 10  1  0  0  0  0
 10 11  2  0  0  0  0
 10 21  1  0  0  0  0
 11 12  1  0  0  0  0
 11 13  1  0  0  0  0
 13 14  1  0  0  0  0
 13 19  1  0  0  0  0
 14 15  1  0  0  0  0
 15 16  2  0  0  0  0
 15 17  1  0  0  0  0
 17 18  1  0  0  0  0
 18 19  1  0  0  0  0
 18 25  1  0  0  0  0
 19 20  2  0  0  0  0
 20 21  1  0  0  0  0
 20 22  1  0  0  0  0
 22 23  1  0  0  0  0
 22 24  1  0  0  0  0
 23 24  1  0  0  0  0
 26 27  2  0  0  0  0
 26 32  1  0  0  0  0
 27 28  1  0  0  0  0
 28 29  1  0  0  0  0
 28 30  2  0  0  0  0
 30 31  1  0  0  0  0
 31 32  2  0  0  0  0
 31 36  1  0  0  0  0
 32 33  1  0  0  0  0
 33 34  2  0  0  0  0
 34 35  1  0  0  0  0
 34 42  1  0  0  0  0
 35 36  2  0  0  0  0
 35 38  1  0  0  0  0
 36 37  1  0  0  0  0
 39 38  1  1  0  0  0
 39 40  1  0  0  0  0
 39 44  1  0  0  0  0
 39 45  1  0  0  0  0
 40 41  2  0  0  0  0
 40 42  1  0  0  0  0
 42 43  2  0  0  0  0
 45 44  1  6  0  0  0
 45 46  1  0  0  0  0
 45 47  1  0  0  0  0
 46 47  1  0  0  0  0
 47 48  2  0  0  0  0
 49 50  2  0  0  0  0
 49 51  1  0  0  0  0
 51 52  2  0  0  0  0
 51 53  1  0  0  0  0
 53 54  2  0  0  0  0
M  CHG  3  21   1  28   1  32   1
M  END
$$$$