
 OpenBabel11222002333D

 54 63  0  0  1  0  0  0  0  0999 V2000
    0.1135    6.0730    5.2436 O   0  0  0  0  0  0  0  0  0  0  0  0
   -0.4369    5.7508    4.0263 C   0  0  0  0  0  0  0  0  0  0  0  0
   -0.0397    4.6907    3.3116 C   0  0  0  0  0  0  0  0  0  0  0  0
    1.0063    3.8872    3.7216 O   0  0  0  0  0  0  0  0  0  0  0  0
    0.6392    2.5169    3.8201 C   0  0  2  0  0  0  0  0  0  0  0  0
    1.7499    1.6835    4.2610 O   0  0  0  0  0  0  0  0  0  0  0  0
    2.3191    1.9492    5.5015 C   0  0  0  0  0  0  0  0  0  0  0  0
    2.9968    0.9976    6.1809 C   0  0  0  0  0  0  0  0  0  0  0  0
    3.5613    1.2252    7.4442 O   0  0  0  0  0  0  0  0  0  0  0  0
    3.4809    2.5016    8.0234 C   0  0  0  0  0  0  0  0  0  0  0  0
    2.8757    3.5180    7.3842 C   0  0  0  0  0  0  0  0  0  0  0  0
    2.2290    3.3497    6.0501 C   0  0  0  0  0  0  0  0  0  0  0  0
    2.8109    4.9111    7.9500 C   0  0  3  0  0  0  0  0  0  0  0  0
    1.4499    5.2749    8.1031 O   0  0  0  0  0  0  0  0  0  0  0  0
    1.2497    6.5661    8.4909 C   0  0  0  0  0  0  0  0  0  0  0  0
    0.2031    7.1523    8.2691 O   0  0  0  0  0  0  0  0  0  0  0  0
    2.3190    7.1446    9.0952 O   0  0  0  0  0  0  0  0  0  0  0  0
    3.1801    6.3360    9.8893 C   0  0  3  0  0  0  0  0  0  0  0  0
    3.3788    4.9758    9.3114 C   0  0  0  0  0  0  0  0  0  0  0  0
    3.9464    3.9123    9.9218 C   0  0  0  0  0  0  0  0  0  0  0  0
    4.0380    2.6884    9.2708 O   0  3  0  0  0  0  0  0  0  0  0  0
    4.4655    3.9518   11.3072 C   0  0  0  0  0  0  0  0  0  0  0  0
    3.6151    3.6212   12.4130 O   0  0  0  0  0  0  0  0  0  0  0  0
    4.6815    2.7299   12.0345 O   0  0  0  0  0  0  0  0  0  0  0  0
    4.4707    6.9134    9.8882 O   0  0  0  0  0  0  0  0  0  0  0  0
    3.1834   -0.3781    5.6518 C   0  0  0  0  0  0  0  0  0  0  0  0
    2.1921   -1.3239    5.9045 C   0  0  0  0  0  0  0  0  0  0  0  0
    2.2989   -2.5731    5.4364 N   0  3  0  0  0  0  0  0  0  0  0  0
    1.3343   -3.4683    5.7249 F   0  0  0  0  0  0  0  0  0  0  0  0
    3.3239   -2.9754    4.7130 N   0  0  0  0  0  0  0  0  0  0  0  0
    4.3024   -2.1208    4.4093 C   0  0  0  0  0  0  0  0  0  0  0  0
    4.2922   -0.7821    4.8686 C   0  0  0  0  0  0  0  0  0  0  0  0
    5.3826    0.0527    4.5216 C   0  0  0  0  0  0  0  0  0  0  0  0
    6.4203   -0.4527    3.7360 C   0  0  0  0  0  0  0  0  0  0  0  0
    7.5688    0.2909    3.3987 C   0  0  0  0  0  0  0  0  0  0  0  0
    8.2102    1.3714    3.6177 N   0  0  0  0  0  0  0  0  0  0  0  0
    9.2502    0.8934    2.6907 N   0  0  0  0  0  0  0  0  0  0  0  0
    8.5674   -0.1734    2.5138 C   0  0  0  0  0  0  0  0  0  0  0  0
    8.4157   -1.4546    1.8251 C   0  0  1  0  0  0  0  0  0  0  0  0
    7.4531   -2.3130    2.5144 O   0  0  0  0  0  0  0  0  0  0  0  0
    6.4337   -1.7585    3.2588 C   0  0  0  0  0  0  0  0  0  0  0  0
    5.3682   -2.5748    3.6232 C   0  0  0  0  0  0  0  0  0  0  0  0
    5.3653   -3.8547    3.2169 F   0  0  0  0  0  0  0  0  0  0  0  0
    7.9661   -1.2572    0.4173 C   0  0  1  0  0  0  0  0  0  0  0  0
    6.6960   -0.5768    0.2399 O   0  0  0  0  0  0  0  0  0  0  0  0
    8.9988   -0.9083   -0.5015 O   0  0  0  0  0  0  0  0  0  0  0  0
    8.3882   -2.0993   -0.7115 C   0  0  0  0  0  0  0  0  0  0  0  0
    7.7482   -2.4820   -1.6509 O   0  0  0  0  0  0  0  0  0  0  0  0
    0.1590    1.9513    2.4905 C   0  0  0  0  0  0  0  0  0  0  0  0
    0.0651    0.7534    2.2547 O   0  0  0  0  0  0  0  0  0  0  0  0
   -0.2614    3.0129    1.4909 C   0  0  0  0  0  0  0  0  0  0  0  0
   -0.1942    2.7890    0.2953 O   0  0  0  0  0  0  0  0  0  0  0  0
   -0.6985    4.3691    2.0191 C   0  0  0  0  0  0  0  0  0  0  0  0
   -1.5282    5.0637    1.4666 O   0  0  0  0  0  0  0  0  0  0  0  0
  1  2  1  0  0  0  0
  2  3  2  0  0  0  0
  3  4  1  0  0  0  0
  3 53  1  0  0  0  0
  4  5  1  0  0  0  0
  5  6  1  6  0  0  0
  5 49  1  0  0  0  0
  6  7  1  0  0  0  0
  7  8  2  0  0  0  0
  7 12  1  0  0  0  0
  8  9  1  0  0  0  0
  8 26  1  0  0  0  0
  9 10  1  0  0  0  0
 10 11  2  0  0  0  0
 10 21  1  0  0  0  0
 11 12  1  0  0  0  0
 11 13  1  0  0  0  0
 13 14  1  0  0  0  0
 13 19  1  0  0  0  0
 14 15  1  0  0  0  0
 15 16  2  0  0  0  0
 15 17  1  0  0  0  0
 17 18  1  0  0  0  0
 18 19  1  0  0  0  0
 18 25  1  0  0  0  0
 19 20  2  0  0  0  0
 20 21  1  0  0  0  0
 20 22  1  0  0  0  0
 22 23  1  0  0  0  0
 22 24  1  0  0  0  0
 23 24  1  0  0  0  0
 26 27  2  0  0  0  0
 26 32  1  0  0  0  0
 27 28  1  0  0  0  0
 28 29  1  0  0  0  0
 28 30  2  0  0  0  0
 30 31  1  0  0  0  0
 31 32  2  0  0  0  0
 31 42  1  0  0  0  0
 32 33  1  0  0  0  0
 33 34  2  0  0  0  0
 34 35  1  0  0  0  0
 34 41  1  0  0  0  0
 35 36  2  0  0  0  0
 35 38  1  0  0  0  0
 36 37  1  0  0  0  0
 37 38  2  0  0  0  0
 39 38  1  1  0  0  0
 39 40  1  0  0  0  0
 39 44  1  0  0  0  0
 40 41  1  0  0  0  0
 41 42  2  0  0  0  0
 42 43  1  0  0  0  0
 44 45  1  6  0  0  0
 44 46  1  0  0  0  0
 44 47  1  0  0  0  0
 46 47  1  0  0  0  0
 47 48  2  0  0  0  0
 49 50  2  0  0  0  0
 49 51  1  0  0  0  0
 51 52  2  0  0  0  0
 51 53  1  0  0  0  0
 53 54  2  0  0  0  0
M  CHG  2  21   1  28   1
M  END
$$$$