
 OpenBabel11212020593D

 54 62  0  0  1  0  0  0  0  0999 V2000
   -0.6565   -3.4344   -3.0571 O   0  0  0  0  0  0  0  0  0  0  0  0
   -0.4410   -2.3572   -2.2351 C   0  0  0  0  0  0  0  0  0  0  0  0
    0.3304   -2.4136   -1.1420 C   0  0  0  0  0  0  0  0  0  0  0  0
    0.9002   -3.6020   -0.7482 O   0  0  0  0  0  0  0  0  0  0  0  0
    2.1512   -3.5131   -0.1063 C   0  0  2  0  0  0  0  0  0  0  0  0
    2.3969   -4.7580    0.6136 O   0  0  0  0  0  0  0  0  0  0  0  0
    2.4925   -5.9356   -0.1125 C   0  0  0  0  0  0  0  0  0  0  0  0
    2.1000   -7.1361    0.3929 C   0  0  0  0  0  0  0  0  0  0  0  0
    2.2677   -8.3111   -0.3529 O   0  0  0  0  0  0  0  0  0  0  0  0
    2.9259   -8.3054   -1.5791 C   0  0  0  0  0  0  0  0  0  0  0  0
    3.3996   -7.1662   -2.1108 C   0  0  0  0  0  0  0  0  0  0  0  0
    3.1624   -5.8379   -1.4656 C   0  0  0  0  0  0  0  0  0  0  0  0
    4.2052   -7.1522   -3.3810 C   0  0  3  0  0  0  0  0  0  0  0  0
    5.5194   -6.7525   -3.0296 O   0  0  0  0  0  0  0  0  0  0  0  0
    6.4668   -6.7490   -4.0064 C   0  0  0  0  0  0  0  0  0  0  0  0
    7.5322   -6.1756   -3.8528 O   0  0  0  0  0  0  0  0  0  0  0  0
    6.1494   -7.4118   -5.1440 O   0  0  0  0  0  0  0  0  0  0  0  0
    5.1562   -8.4292   -5.2025 C   0  0  3  0  0  0  0  0  0  0  0  0
    4.3340   -8.5036   -3.9678 C   0  0  0  0  0  0  0  0  0  0  0  0
    3.7899   -9.6070   -3.4096 C   0  0  0  0  0  0  0  0  0  0  0  0
    3.0917   -9.5154   -2.2152 O   0  3  0  0  0  0  0  0  0  0  0  0
    3.9117  -10.9663   -3.9821 C   0  0  0  0  0  0  0  0  0  0  0  0
    4.9865  -11.8316   -3.5976 O   0  0  0  0  0  0  0  0  0  0  0  0
    3.6421  -12.1221   -3.1693 O   0  0  0  0  0  0  0  0  0  0  0  0
    4.2380   -8.1122   -6.2290 O   0  0  0  0  0  0  0  0  0  0  0  0
    1.4861   -7.3688    1.7617 C   0  0  0  0  0  0  0  0  0  0  0  0
    1.8744   -6.5440    2.8194 C   0  0  0  0  0  0  0  0  0  0  0  0
    1.3649   -6.6969    4.0447 N   0  3  0  0  0  0  0  0  0  0  0  0
    1.7933   -5.8927    5.0373 F   0  0  0  0  0  0  0  0  0  0  0  0
    0.4494   -7.5969    4.3280 N   0  0  0  0  0  0  0  0  0  0  0  0
   -0.0059   -8.4278    3.3876 C   0  0  0  0  0  0  0  0  0  0  0  0
    0.5315   -8.3956    2.0786 C   0  0  0  0  0  0  0  0  0  0  0  0
    0.0554   -9.3892    1.1857 C   0  0  0  0  0  0  0  0  0  0  0  0
   -0.9820  -10.2770    1.5169 C   0  0  0  0  0  0  0  0  0  0  0  0
   -1.4277  -11.2614    0.5282 C   0  0  0  0  0  0  0  0  0  0  0  0
   -0.7949  -11.4162   -0.5069 O   0  0  0  0  0  0  0  0  0  0  0  0
   -2.6656  -12.0600    0.8642 C   0  0  0  0  0  0  0  0  0  0  0  0
   -2.9279  -13.0735    0.2360 O   0  0  0  0  0  0  0  0  0  0  0  0
   -3.5127  -11.4617    1.9655 C   0  0  1  0  0  0  0  0  0  0  0  0
   -2.7297  -10.9185    3.0525 O   0  0  0  0  0  0  0  0  0  0  0  0
   -1.6011  -10.2084    2.7455 C   0  0  0  0  0  0  0  0  0  0  0  0
   -1.0532   -9.3320    3.6944 C   0  0  0  0  0  0  0  0  0  0  0  0
   -1.7747   -9.3425    5.4692 Br  0  0  0  0  0  0  0  0  0  0  0  0
   -4.5393  -10.5029    1.4025 C   0  0  1  0  0  0  0  0  0  0  0  0
   -5.4923  -11.0654    0.4804 O   0  0  0  0  0  0  0  0  0  0  0  0
   -5.0582   -9.5153    2.2987 O   0  0  0  0  0  0  0  0  0  0  0  0
   -4.3214   -9.0739    1.2740 C   0  0  0  0  0  0  0  0  0  0  0  0
   -3.2959   -8.4107    1.2302 O   0  0  0  0  0  0  0  0  0  0  0  0
    2.2739   -2.4088    0.9434 C   0  0  0  0  0  0  0  0  0  0  0  0
    2.9102   -2.5919    1.9871 O   0  0  0  0  0  0  0  0  0  0  0  0
    1.6821   -1.0711    0.5774 C   0  0  3  0  0  0  0  0  0  0  0  0
    0.4978   -1.1557   -0.3514 C   0  0  0  0  0  0  0  0  0  0  0  0
   -0.2753   -0.2133   -0.5133 O   0  0  0  0  0  0  0  0  0  0  0  0
    1.3629   -0.3717    1.7080 F   0  0  0  0  0  0  0  0  0  0  0  0
  1  2  1  0  0  0  0
  2  3  2  0  0  0  0
  3  4  1  0  0  0  0
  3 52  1  0  0  0  0
  4  5  1  0  0  0  0
  5  6  1  1  0  0  0
  5 49  1  0  0  0  0
  6  7  1  0  0  0  0
  7  8  2  0  0  0  0
  7 12  1  0  0  0  0
  8  9  1  0  0  0  0
  8 26  1  0  0  0  0
  9 10  1  0  0  0  0
 10 11  2  0  0  0  0
 10 21  1  0  0  0  0
 11 12  1  0  0  0  0
 11 13  1  0  0  0  0
 13 14  1  0  0  0  0
 13 19  1  0  0  0  0
 14 15  1  0  0  0  0
 15 16  2  0  0  0  0
 15 17  1  0  0  0  0
 17 18  1  0  0  0  0
 18 19  1  0  0  0  0
 18 25  1  0  0  0  0
 19 20  2  0  0  0  0
 20 21  1  0  0  0  0
 20 22  1  0  0  0  0
 22 23  1  0  0  0  0
 22 24  1  0  0  0  0
 23 24  1  0  0  0  0
 26 27  2  0  0  0  0
 26 32  1  0  0  0  0
 27 28  1  0  0  0  0
 28 29  1  0  0  0  0
 28 30  2  0  0  0  0
 30 31  1  0  0  0  0
 31 32  2  0  0  0  0
 31 42  1  0  0  0  0
 32 33  1  0  0  0  0
 33 34  2  0  0  0  0
 34 35  1  0  0  0  0
 34 41  1  0  0  0  0
 35 36  2  0  0  0  0
 35 37  1  0  0  0  0
 37 38  2  0  0  0  0
 39 37  1  6  0  0  0
 39 40  1  0  0  0  0
 39 44  1  0  0  0  0
 40 41  1  0  0  0  0
 41 42  2  0  0  0  0
 42 43  1  0  0  0  0
 44 45  1  6  0  0  0
 44 46  1  0  0  0  0
 44 47  1  0  0  0  0
 46 47  1  0  0  0  0
 47 48  2  0  0  0  0
 49 50  2  0  0  0  0
 49 51  1  0  0  0  0
 51 52  1  0  0  0  0
 51 54  1  0  0  0  0
 52 53  2  0  0  0  0
M  CHG  2  21   1  28   1
M  END
$$$$