
 OpenBabel11252016543D

 54 63  0  0  1  0  0  0  0  0999 V2000
    6.1242   -8.3787    4.3368 O   0  0  0  0  0  0  0  0  0  0  0  0
    5.6372   -9.2948    3.4393 C   0  0  0  0  0  0  0  0  0  0  0  0
    6.0594   -9.4100    2.1717 C   0  0  0  0  0  0  0  0  0  0  0  0
    7.0130   -8.5573    1.6326 O   0  0  0  0  0  0  0  0  0  0  0  0
    7.9004   -9.1671    0.7072 C   0  0  2  0  0  0  0  0  0  0  0  0
    8.6795   -8.1462    0.0233 O   0  0  0  0  0  0  0  0  0  0  0  0
    9.7590   -7.6128    0.7065 C   0  0  0  0  0  0  0  0  0  0  0  0
   10.0036   -6.2857    0.7141 C   0  0  0  0  0  0  0  0  0  0  0  0
   11.1460   -5.7231    1.2984 O   0  0  0  0  0  0  0  0  0  0  0  0
   12.1244   -6.5617    1.8534 C   0  0  0  0  0  0  0  0  0  0  0  0
   11.9542   -7.8992    1.8762 C   0  0  0  0  0  0  0  0  0  0  0  0
   10.7292   -8.5731    1.3324 C   0  0  0  0  0  0  0  0  0  0  0  0
   12.9721   -8.8256    2.4786 C   0  0  3  0  0  0  0  0  0  0  0  0
   13.4292   -9.6886    1.4647 O   0  0  0  0  0  0  0  0  0  0  0  0
   14.3764  -10.5951    1.8409 C   0  0  0  0  0  0  0  0  0  0  0  0
   14.5368  -11.6200    1.1998 O   0  0  0  0  0  0  0  0  0  0  0  0
   15.1125  -10.2886    2.9426 O   0  0  0  0  0  0  0  0  0  0  0  0
   15.1436   -9.0463    3.4585 C   0  0  0  0  0  0  0  0  0  0  0  0
   15.8929   -8.7093    4.3623 O   0  0  0  0  0  0  0  0  0  0  0  0
   14.1531   -8.1004    2.9506 C   0  0  0  0  0  0  0  0  0  0  0  0
   14.2886   -6.7576    2.9174 C   0  0  0  0  0  0  0  0  0  0  0  0
   13.2664   -5.9785    2.3778 O   0  3  0  0  0  0  0  0  0  0  0  0
   15.4962   -6.0186    3.3711 C   0  0  0  0  0  0  0  0  0  0  0  0
   16.5220   -5.6496    2.4397 O   0  0  0  0  0  0  0  0  0  0  0  0
   15.6727   -4.6357    3.0085 O   0  0  0  0  0  0  0  0  0  0  0  0
    9.0537   -5.3092    0.1315 C   0  0  0  0  0  0  0  0  0  0  0  0
    9.1084   -5.0343   -1.2330 C   0  0  0  0  0  0  0  0  0  0  0  0
    8.2633   -4.1548   -1.7854 N   0  3  0  0  0  0  0  0  0  0  0  0
    8.3741   -3.8726   -3.0984 F   0  0  0  0  0  0  0  0  0  0  0  0
    7.3269   -3.5353   -1.0897 N   0  0  0  0  0  0  0  0  0  0  0  0
    7.1908   -3.7830    0.2174 C   0  0  0  0  0  0  0  0  0  0  0  0
    8.0534   -4.6676    0.8953 C   0  0  0  0  0  0  0  0  0  0  0  0
    7.8682   -4.8590    2.2869 C   0  0  0  0  0  0  0  0  0  0  0  0
    6.8374   -4.2057    2.9758 C   0  0  0  0  0  0  0  0  0  0  0  0
    5.9642   -3.3768    2.2997 C   0  0  0  0  0  0  0  0  0  0  0  0
    6.1687   -3.1555    0.9385 C   0  0  0  0  0  0  0  0  0  0  0  0
    5.3518   -2.3108    0.2907 F   0  0  0  0  0  0  0  0  0  0  0  0
    4.9365   -2.7335    2.9370 O   0  0  0  0  0  0  0  0  0  0  0  0
    4.3988   -3.4760    4.0654 C   0  0  1  0  0  0  0  0  0  0  0  0
    5.3738   -3.9642    5.0604 C   0  0  0  0  0  0  0  0  0  0  0  0
    5.1216   -4.1883    6.2309 O   0  0  0  0  0  0  0  0  0  0  0  0
    6.7019   -4.3463    4.4309 C   0  0  0  0  0  0  0  0  0  0  0  0
    7.6479   -4.7600    5.0833 O   0  0  0  0  0  0  0  0  0  0  0  0
    3.1581   -3.0364    4.5552 O   0  0  0  0  0  0  0  0  0  0  0  0
    3.1763   -4.3277    3.8734 C   0  0  1  0  0  0  0  0  0  0  0  0
    2.9201   -4.3588    2.4236 O   0  0  0  0  0  0  0  0  0  0  0  0
    1.8927   -4.4709    3.2373 C   0  0  0  0  0  0  0  0  0  0  0  0
    1.0328   -5.3286    3.3073 O   0  0  0  0  0  0  0  0  0  0  0  0
    7.2375   -9.9409   -0.4211 C   0  0  0  0  0  0  0  0  0  0  0  0
    7.7055  -10.0932   -1.6242 N   0  0  0  0  0  0  0  0  0  0  0  0
    5.9823  -10.6439   -0.0253 C   0  0  0  0  0  0  0  0  0  0  0  0
    5.3947  -11.4471   -0.8584 N   0  0  0  0  0  0  0  0  0  0  0  0
    5.3989  -10.4626    1.3449 C   0  0  0  0  0  0  0  0  0  0  0  0
    4.4008  -11.1961    1.7129 N   0  0  0  0  0  0  0  0  0  0  0  0
  1  2  1  0  0  0  0
  2  3  2  0  0  0  0
  3  4  1  0  0  0  0
  3 53  1  0  0  0  0
  4  5  1  0  0  0  0
  5  6  1  6  0  0  0
  5 49  1  0  0  0  0
  6  7  1  0  0  0  0
  7  8  2  0  0  0  0
  7 12  1  0  0  0  0
  8  9  1  0  0  0  0
  8 26  1  0  0  0  0
  9 10  1  0  0  0  0
 10 11  2  0  0  0  0
 10 22  1  0  0  0  0
 11 12  1  0  0  0  0
 11 13  1  0  0  0  0
 13 14  1  0  0  0  0
 13 20  1  0  0  0  0
 14 15  1  0  0  0  0
 15 16  2  0  0  0  0
 15 17  1  0  0  0  0
 17 18  1  0  0  0  0
 18 19  2  0  0  0  0
 18 20  1  0  0  0  0
 20 21  2  0  0  0  0
 21 22  1  0  0  0  0
 21 23  1  0  0  0  0
 23 24  1  0  0  0  0
 23 25  1  0  0  0  0
 24 25  1  0  0  0  0
 26 27  2  0  0  0  0
 26 32  1  0  0  0  0
 27 28  1  0  0  0  0
 28 29  1  0  0  0  0
 28 30  2  0  0  0  0
 30 31  1  0  0  0  0
 31 32  2  0  0  0  0
 31 36  1  0  0  0  0
 32 33  1  0  0  0  0
 33 34  2  0  0  0  0
 34 35  1  0  0  0  0
 34 42  1  0  0  0  0
 35 36  2  0  0  0  0
 35 38  1  0  0  0  0
 36 37  1  0  0  0  0
 39 38  1  6  0  0  0
 39 40  1  0  0  0  0
 39 44  1  0  0  0  0
 39 45  1  0  0  0  0
 40 41  2  0  0  0  0
 40 42  1  0  0  0  0
 42 43  2  0  0  0  0
 45 44  1  6  0  0  0
 45 46  1  0  0  0  0
 45 47  1  0  0  0  0
 46 47  1  0  0  0  0
 47 48  2  0  0  0  0
 49 50  2  0  0  0  0
 49 51  1  0  0  0  0
 51 52  2  0  0  0  0
 51 53  1  0  0  0  0
 53 54  2  0  0  0  0
M  CHG  2  22   1  28   1
M  END
$$$$