
 OpenBabel11262000583D

 54 62  0  0  1  0  0  0  0  0999 V2000
   -1.5997   -3.8269   -2.3682 O   0  0  0  0  0  0  0  0  0  0  0  0
   -1.0971   -2.6175   -1.9560 C   0  0  0  0  0  0  0  0  0  0  0  0
    0.0757   -2.4930   -1.3206 C   0  0  0  0  0  0  0  0  0  0  0  0
    0.8265   -3.6190   -1.0284 O   0  0  0  0  0  0  0  0  0  0  0  0
    2.1265   -3.4360   -0.4661 C   0  0  2  0  0  0  0  0  0  0  0  0
    2.4902   -4.5998    0.3413 O   0  0  0  0  0  0  0  0  0  0  0  0
    2.5435   -5.8363   -0.2818 C   0  0  0  0  0  0  0  0  0  0  0  0
    2.2708   -7.0006    0.3678 C   0  0  0  0  0  0  0  0  0  0  0  0
    2.4061   -8.2422   -0.2967 O   0  0  0  0  0  0  0  0  0  0  0  0
    2.9994   -8.3055   -1.5710 C   0  0  0  0  0  0  0  0  0  0  0  0
    3.3279   -7.1816   -2.2348 C   0  0  0  0  0  0  0  0  0  0  0  0
    3.0300   -5.8265   -1.7019 C   0  0  0  0  0  0  0  0  0  0  0  0
    4.0239   -7.1887   -3.5645 C   0  0  3  0  0  0  0  0  0  0  0  0
    5.2855   -6.5699   -3.3888 O   0  0  0  0  0  0  0  0  0  0  0  0
    6.1328   -6.6311   -4.4375 C   0  0  0  0  0  0  0  0  0  0  0  0
    7.1492   -5.8580   -4.4584 N   0  0  0  0  0  0  0  0  0  0  0  0
    5.8841   -7.5035   -5.4383 O   0  0  0  0  0  0  0  0  0  0  0  0
    5.0169   -8.5235   -5.2848 C   0  0  0  0  0  0  0  0  0  0  0  0
    4.7894   -9.3625   -6.1429 O   0  0  0  0  0  0  0  0  0  0  0  0
    4.2778   -8.5545   -4.0243 C   0  0  0  0  0  0  0  0  0  0  0  0
    3.8851   -9.6651   -3.3653 C   0  0  0  0  0  0  0  0  0  0  0  0
    3.2439   -9.5488   -2.1302 O   0  3  0  0  0  0  0  0  0  0  0  0
    4.1500  -11.0482   -3.8297 C   0  0  0  0  0  0  0  0  0  0  0  0
    5.3190  -11.7534   -3.3965 O   0  0  0  0  0  0  0  0  0  0  0  0
    4.0213  -12.1504   -2.9133 O   0  0  0  0  0  0  0  0  0  0  0  0
    1.7526   -7.0845    1.7947 C   0  0  0  0  0  0  0  0  0  0  0  0
    0.9485   -6.0375    2.2626 C   0  0  0  0  0  0  0  0  0  0  0  0
    0.4188   -6.0472    3.4889 N   0  3  0  0  0  0  0  0  0  0  0  0
   -0.3018   -4.9851    3.8990 F   0  0  0  0  0  0  0  0  0  0  0  0
    0.5525   -7.0630    4.3106 N   0  0  0  0  0  0  0  0  0  0  0  0
    1.2819   -8.1163    3.9509 C   0  0  0  0  0  0  0  0  0  0  0  0
    1.9544   -8.1753    2.7057 C   0  0  0  0  0  0  0  0  0  0  0  0
    2.7741   -9.3189    2.4961 C   0  0  0  0  0  0  0  0  0  0  0  0
    2.8335  -10.3827    3.4247 C   0  0  0  0  0  0  0  0  0  0  0  0
    3.6407  -11.5728    3.1399 C   0  0  0  0  0  0  0  0  0  0  0  0
    4.2583  -11.6585    2.0899 O   0  0  0  0  0  0  0  0  0  0  0  0
    3.6200  -12.6740    4.1797 C   0  0  0  0  0  0  0  0  0  0  0  0
    4.5575  -13.4490    4.2778 O   0  0  0  0  0  0  0  0  0  0  0  0
    2.3643  -12.6976    5.0225 C   0  0  1  0  0  0  0  0  0  0  0  0
    1.9980  -11.3777    5.4818 O   0  0  0  0  0  0  0  0  0  0  0  0
    2.0954  -10.3446    4.5905 C   0  0  0  0  0  0  0  0  0  0  0  0
    1.3626   -9.1882    4.8493 C   0  0  0  0  0  0  0  0  0  0  0  0
    0.6698   -9.1129    5.9982 F   0  0  0  0  0  0  0  0  0  0  0  0
    1.2345  -13.4281    4.3304 C   0  0  1  0  0  0  0  0  0  0  0  0
    1.4768  -14.8058    3.9913 O   0  0  0  0  0  0  0  0  0  0  0  0
   -0.0880  -13.1442    4.8121 O   0  0  0  0  0  0  0  0  0  0  0  0
    0.1936  -12.7714    3.5620 C   0  0  0  0  0  0  0  0  0  0  0  0
    0.1552  -11.6897    2.9933 O   0  0  0  0  0  0  0  0  0  0  0  0
    2.1990   -2.2385    0.4683 C   0  0  3  0  0  0  0  0  0  0  0  0
    1.8389   -0.9698   -0.2650 C   0  0  3  0  0  0  0  0  0  0  0  0
    0.4858   -1.1071   -0.9087 C   0  0  0  0  0  0  0  0  0  0  0  0
   -0.2261   -0.1356   -1.1518 O   0  0  0  0  0  0  0  0  0  0  0  0
    1.9057    0.0643    0.6205 F   0  0  0  0  0  0  0  0  0  0  0  0
    1.3161   -2.4639    1.4927 F   0  0  0  0  0  0  0  0  0  0  0  0
  1  2  1  0  0  0  0
  2  3  2  0  0  0  0
  3  4  1  0  0  0  0
  3 51  1  0  0  0  0
  4  5  1  0  0  0  0
  5  6  1  1  0  0  0
  5 49  1  0  0  0  0
  6  7  1  0  0  0  0
  7  8  2  0  0  0  0
  7 12  1  0  0  0  0
  8  9  1  0  0  0  0
  8 26  1  0  0  0  0
  9 10  1  0  0  0  0
 10 11  2  0  0  0  0
 10 22  1  0  0  0  0
 11 12  1  0  0  0  0
 11 13  1  0  0  0  0
 13 14  1  0  0  0  0
 13 20  1  0  0  0  0
 14 15  1  0  0  0  0
 15 16  2  0  0  0  0
 15 17  1  0  0  0  0
 17 18  1  0  0  0  0
 18 19  2  0  0  0  0
 18 20  1  0  0  0  0
 20 21  2  0  0  0  0
 21 22  1  0  0  0  0
 21 23  1  0  0  0  0
 23 24  1  0  0  0  0
 23 25  1  0  0  0  0
 24 25  1  0  0  0  0
 26 27  2  0  0  0  0
 26 32  1  0  0  0  0
 27 28  1  0  0  0  0
 28 29  1  0  0  0  0
 28 30  2  0  0  0  0
 30 31  1  0  0  0  0
 31 32  2  0  0  0  0
 31 42  1  0  0  0  0
 32 33  1  0  0  0  0
 33 34  2  0  0  0  0
 34 35  1  0  0  0  0
 34 41  1  0  0  0  0
 35 36  2  0  0  0  0
 35 37  1  0  0  0  0
 37 38  2  0  0  0  0
 39 37  1  6  0  0  0
 39 40  1  0  0  0  0
 39 44  1  0  0  0  0
 40 41  1  0  0  0  0
 41 42  2  0  0  0  0
 42 43  1  0  0  0  0
 44 45  1  6  0  0  0
 44 46  1  0  0  0  0
 44 47  1  0  0  0  0
 46 47  1  0  0  0  0
 47 48  2  0  0  0  0
 49 50  1  0  0  0  0
 49 54  1  0  0  0  0
 50 51  1  0  0  0  0
 50 53  1  0  0  0  0
 51 52  2  0  0  0  0
M  CHG  2  22   1  28   1
M  END
$$$$