
 OpenBabel10272000313D

 51 59  0  0  1  0  0  0  0  0999 V2000
    3.3233    8.3272   -4.2798 O   0  0  0  0  0  0  0  0  0  0  0  0
    3.3285    7.1081   -4.9105 C   0  0  0  0  0  0  0  0  0  0  0  0
    3.3688    5.9412   -4.2558 C   0  0  0  0  0  0  0  0  0  0  0  0
    3.4631    5.8792   -2.8759 O   0  0  0  0  0  0  0  0  0  0  0  0
    2.6051    4.8988   -2.2875 C   0  0  2  0  0  0  0  0  0  0  0  0
    2.7736    4.8529   -0.8539 O   0  0  0  0  0  0  0  0  0  0  0  0
    2.5564    6.0293   -0.1464 C   0  0  0  0  0  0  0  0  0  0  0  0
    3.2249    6.3015    0.9957 C   0  0  0  0  0  0  0  0  0  0  0  0
    3.0561    7.4859    1.7134 O   0  0  0  0  0  0  0  0  0  0  0  0
    2.2578    8.4941    1.1886 C   0  0  0  0  0  0  0  0  0  0  0  0
    1.5009    8.2917    0.0955 C   0  0  0  0  0  0  0  0  0  0  0  0
    1.4984    6.9825   -0.6371 C   0  0  0  0  0  0  0  0  0  0  0  0
    0.6399    9.3705   -0.4898 C   0  0  3  0  0  0  0  0  0  0  0  0
   -0.7078    8.9566   -0.3691 O   0  0  0  0  0  0  0  0  0  0  0  0
   -1.6782    9.8121   -0.7872 C   0  0  0  0  0  0  0  0  0  0  0  0
   -2.8066    9.4242   -1.0408 O   0  0  0  0  0  0  0  0  0  0  0  0
   -1.3149   11.1156   -0.8962 O   0  0  0  0  0  0  0  0  0  0  0  0
   -0.1077   11.6808   -0.3614 C   0  0  0  0  0  0  0  0  0  0  0  0
    0.7738   10.6489    0.2501 C   0  0  0  0  0  0  0  0  0  0  0  0
    1.5578   10.7892    1.3437 C   0  0  0  0  0  0  0  0  0  0  0  0
    2.2773    9.7078    1.8318 O   0  3  0  0  0  0  0  0  0  0  0  0
    1.6886   12.0580    2.0977 C   0  0  0  0  0  0  0  0  0  0  0  0
    0.8204   12.3602    3.1962 O   0  0  0  0  0  0  0  0  0  0  0  0
    2.2108   12.0670    3.4367 O   0  0  0  0  0  0  0  0  0  0  0  0
    4.2115    5.3854    1.6009 C   0  0  0  0  0  0  0  0  0  0  0  0
    5.4757    5.5857    1.1757 N   0  0  0  0  0  0  0  0  0  0  0  0
    6.3981    4.7758    1.7078 C   0  0  0  0  0  0  0  0  0  0  0  0
    6.1788    3.8318    2.6331 N   0  0  0  0  0  0  0  0  0  0  0  0
    4.9257    3.6661    3.0665 C   0  0  0  0  0  0  0  0  0  0  0  0
    3.8611    4.4369    2.5808 C   0  0  0  0  0  0  0  0  0  0  0  0
    2.5624    4.2237    3.1039 C   0  0  0  0  0  0  0  0  0  0  0  0
    2.3426    3.2609    4.0963 C   0  0  0  0  0  0  0  0  0  0  0  0
    3.3931    2.5003    4.5794 C   0  0  0  0  0  0  0  0  0  0  0  0
    4.6703    2.7055    4.0459 C   0  0  0  0  0  0  0  0  0  0  0  0
    3.2868    1.5424    5.5447 O   0  0  0  0  0  0  0  0  0  0  0  0
    2.0606    1.4658    6.2841 C   0  0  2  0  0  0  0  0  0  0  0  0
    0.8020    1.8896    5.5559 C   0  0  0  0  0  0  0  0  0  0  0  0
   -0.2997    1.3913    5.7305 O   0  0  0  0  0  0  0  0  0  0  0  0
    0.9917    3.0569    4.6206 C   0  0  0  0  0  0  0  0  0  0  0  0
    0.0756    3.8038    4.3165 O   0  0  0  0  0  0  0  0  0  0  0  0
    2.2183    2.1468    7.6216 C   0  0  1  0  0  0  0  0  0  0  0  0
    3.2518    1.6275    8.4895 O   0  0  0  0  0  0  0  0  0  0  0  0
    2.1554    3.5794    7.5763 O   0  0  0  0  0  0  0  0  0  0  0  0
    1.1801    2.9492    8.2482 C   0  0  0  0  0  0  0  0  0  0  0  0
   -0.0288    3.0052    8.1047 O   0  0  0  0  0  0  0  0  0  0  0  0
    2.7986    3.4872   -2.8371 C   0  0  0  0  0  0  0  0  0  0  0  0
    2.3528    2.4657   -2.3350 O   0  0  0  0  0  0  0  0  0  0  0  0
    3.4865    3.4608   -4.1790 C   0  0  0  0  0  0  0  0  0  0  0  0
    4.1644    2.5097   -4.5257 O   0  0  0  0  0  0  0  0  0  0  0  0
    3.3597    4.6854   -5.0528 C   0  0  0  0  0  0  0  0  0  0  0  0
    3.2070    4.6220   -6.2586 O   0  0  0  0  0  0  0  0  0  0  0  0
  1  2  1  0  0  0  0
  2  3  2  0  0  0  0
  3  4  1  0  0  0  0
  3 50  1  0  0  0  0
  4  5  1  0  0  0  0
  5  6  1  1  0  0  0
  5 46  1  0  0  0  0
  6  7  1  0  0  0  0
  7  8  2  0  0  0  0
  7 12  1  0  0  0  0
  8  9  1  0  0  0  0
  8 25  1  0  0  0  0
  9 10  1  0  0  0  0
 10 11  2  0  0  0  0
 10 21  1  0  0  0  0
 11 12  1  0  0  0  0
 11 13  1  0  0  0  0
 13 14  1  0  0  0  0
 13 19  1  0  0  0  0
 14 15  1  0  0  0  0
 15 16  2  0  0  0  0
 15 17  1  0  0  0  0
 17 18  1  0  0  0  0
 18 19  1  0  0  0  0
 19 20  2  0  0  0  0
 20 21  1  0  0  0  0
 20 22  1  0  0  0  0
 22 23  1  0  0  0  0
 22 24  1  0  0  0  0
 23 24  1  0  0  0  0
 25 26  2  0  0  0  0
 25 30  1  0  0  0  0
 26 27  1  0  0  0  0
 27 28  2  0  0  0  0
 28 29  1  0  0  0  0
 29 30  2  0  0  0  0
 29 34  1  0  0  0  0
 30 31  1  0  0  0  0
 31 32  2  0  0  0  0
 32 33  1  0  0  0  0
 32 39  1  0  0  0  0
 33 34  2  0  0  0  0
 33 35  1  0  0  0  0
 36 35  1  6  0  0  0
 36 37  1  0  0  0  0
 36 41  1  0  0  0  0
 37 38  2  0  0  0  0
 37 39  1  0  0  0  0
 39 40  2  0  0  0  0
 41 42  1  1  0  0  0
 41 43  1  0  0  0  0
 41 44  1  0  0  0  0
 43 44  1  0  0  0  0
 44 45  2  0  0  0  0
 46 47  2  0  0  0  0
 46 48  1  0  0  0  0
 48 49  2  0  0  0  0
 48 50  1  0  0  0  0
 50 51  2  0  0  0  0
M  CHG  1  21   1
M  END
$$$$