
 OpenBabel11172006243D

 52 60  0  0  1  0  0  0  0  0999 V2000
    3.1364    7.8606   -4.2142 O   0  0  0  0  0  0  0  0  0  0  0  0
    2.9808    6.6369   -4.8126 C   0  0  0  0  0  0  0  0  0  0  0  0
    3.0127    5.4888   -4.1251 C   0  0  0  0  0  0  0  0  0  0  0  0
    3.2891    5.4744   -2.7715 O   0  0  0  0  0  0  0  0  0  0  0  0
    2.5191    4.5419   -2.0167 C   0  0  2  0  0  0  0  0  0  0  0  0
    2.8396    4.6209   -0.6112 O   0  0  0  0  0  0  0  0  0  0  0  0
    2.6807    5.8595    0.0039 C   0  0  0  0  0  0  0  0  0  0  0  0
    3.4574    6.2427    1.0427 C   0  0  0  0  0  0  0  0  0  0  0  0
    3.3446    7.4918    1.6623 O   0  0  0  0  0  0  0  0  0  0  0  0
    2.3808    8.3896    1.2122 C   0  0  0  0  0  0  0  0  0  0  0  0
    1.5010    8.0557    0.2548 C   0  0  0  0  0  0  0  0  0  0  0  0
    1.5566    6.7487   -0.4588 C   0  0  0  0  0  0  0  0  0  0  0  0
    0.4596    9.0311   -0.2165 C   0  0  3  0  0  0  0  0  0  0  0  0
   -0.8250    8.4817    0.0897 O   0  0  0  0  0  0  0  0  0  0  0  0
   -1.9330    9.2640   -0.0445 C   0  0  0  0  0  0  0  0  0  0  0  0
   -3.0590    8.7852    0.0077 O   0  0  0  0  0  0  0  0  0  0  0  0
   -1.7241   10.6057   -0.2669 O   0  0  0  0  0  0  0  0  0  0  0  0
   -0.4559   11.2235   -0.1724 C   0  0  0  0  0  0  0  0  0  0  0  0
   -0.2813   12.4209   -0.7378 C   0  0  0  0  0  0  0  0  0  0  0  0
    0.5721   10.3935    0.3895 C   0  0  0  0  0  0  0  0  0  0  0  0
    1.4969   10.6762    1.3370 C   0  0  0  0  0  0  0  0  0  0  0  0
    2.3522    9.6549    1.7577 N   0  0  0  0  0  0  0  0  0  0  0  0
    1.6464   11.9884    2.0129 C   0  0  0  0  0  0  0  0  0  0  0  0
    2.9226   12.4554    2.4887 O   0  0  0  0  0  0  0  0  0  0  0  0
    2.2817   13.1123    1.3804 O   0  0  0  0  0  0  0  0  0  0  0  0
    4.4653    5.3579    1.6594 C   0  0  0  0  0  0  0  0  0  0  0  0
    4.0624    4.5389    2.7053 C   0  0  0  0  0  0  0  0  0  0  0  0
    4.8960    3.6943    3.3415 N   0  0  0  0  0  0  0  0  0  0  0  0
    6.1988    3.6234    2.9499 N   0  0  0  0  0  0  0  0  0  0  0  0
    6.6593    4.3869    1.9509 C   0  0  0  0  0  0  0  0  0  0  0  0
    5.8187    5.2890    1.2623 C   0  0  0  0  0  0  0  0  0  0  0  0
    6.3795    6.0791    0.2346 C   0  0  0  0  0  0  0  0  0  0  0  0
    7.7391    5.9793   -0.0818 C   0  0  0  0  0  0  0  0  0  0  0  0
    8.5522    5.0700    0.5786 C   0  0  0  0  0  0  0  0  0  0  0  0
    8.0012    4.2883    1.5940 C   0  0  0  0  0  0  0  0  0  0  0  0
    9.8807    4.8767    0.3308 O   0  0  0  0  0  0  0  0  0  0  0  0
   10.4364    5.5097   -0.8307 C   0  0  2  0  0  0  0  0  0  0  0  0
    9.8276    6.8477   -1.1905 C   0  0  0  0  0  0  0  0  0  0  0  0
   10.4567    7.8182   -1.5834 O   0  0  0  0  0  0  0  0  0  0  0  0
    8.3225    6.8716   -1.0876 C   0  0  0  0  0  0  0  0  0  0  0  0
    7.6388    7.5892   -1.7970 O   0  0  0  0  0  0  0  0  0  0  0  0
   10.4556    4.5457   -1.9875 C   0  0  1  0  0  0  0  0  0  0  0  0
   11.2138    3.3329   -1.8008 O   0  0  0  0  0  0  0  0  0  0  0  0
    9.2102    4.3429   -2.6576 O   0  0  0  0  0  0  0  0  0  0  0  0
   10.1843    4.9636   -3.3619 C   0  0  0  0  0  0  0  0  0  0  0  0
   10.1596    6.0419   -3.9021 O   0  0  0  0  0  0  0  0  0  0  0  0
    2.7631    3.1145   -2.4921 C   0  0  0  0  0  0  0  0  0  0  0  0
    2.8040    2.1212   -1.7793 O   0  0  0  0  0  0  0  0  0  0  0  0
    2.8761    2.9854   -3.9950 C   0  0  0  0  0  0  0  0  0  0  0  0
    3.0159    1.8857   -4.5098 O   0  0  0  0  0  0  0  0  0  0  0  0
    2.8068    4.2185   -4.8676 C   0  0  0  0  0  0  0  0  0  0  0  0
    2.5722    4.1511   -6.0629 O   0  0  0  0  0  0  0  0  0  0  0  0
  1  2  1  0  0  0  0
  2  3  2  0  0  0  0
  3  4  1  0  0  0  0
  3 51  1  0  0  0  0
  4  5  1  0  0  0  0
  5  6  1  1  0  0  0
  5 47  1  0  0  0  0
  6  7  1  0  0  0  0
  7  8  2  0  0  0  0
  7 12  1  0  0  0  0
  8  9  1  0  0  0  0
  8 26  1  0  0  0  0
  9 10  1  0  0  0  0
 10 11  2  0  0  0  0
 10 22  1  0  0  0  0
 11 12  1  0  0  0  0
 11 13  1  0  0  0  0
 13 14  1  0  0  0  0
 13 20  1  0  0  0  0
 14 15  1  0  0  0  0
 15 16  2  0  0  0  0
 15 17  1  0  0  0  0
 17 18  1  0  0  0  0
 18 19  2  0  0  0  0
 18 20  1  0  0  0  0
 20 21  2  0  0  0  0
 21 22  1  0  0  0  0
 21 23  1  0  0  0  0
 23 24  1  0  0  0  0
 23 25  1  0  0  0  0
 24 25  1  0  0  0  0
 26 27  2  0  0  0  0
 26 31  1  0  0  0  0
 27 28  1  0  0  0  0
 28 29  2  0  0  0  0
 29 30  1  0  0  0  0
 30 31  2  0  0  0  0
 30 35  1  0  0  0  0
 31 32  1  0  0  0  0
 32 33  2  0  0  0  0
 33 34  1  0  0  0  0
 33 40  1  0  0  0  0
 34 35  2  0  0  0  0
 34 36  1  0  0  0  0
 37 36  1  1  0  0  0
 37 38  1  0  0  0  0
 37 42  1  0  0  0  0
 38 39  2  0  0  0  0
 38 40  1  0  0  0  0
 40 41  2  0  0  0  0
 42 43  1  1  0  0  0
 42 44  1  0  0  0  0
 42 45  1  0  0  0  0
 44 45  1  0  0  0  0
 45 46  2  0  0  0  0
 47 48  2  0  0  0  0
 47 49  1  0  0  0  0
 49 50  2  0  0  0  0
 49 51  1  0  0  0  0
 51 52  2  0  0  0  0
M  END
$$$$