
 OpenBabel11262014083D

 54 62  0  0  1  0  0  0  0  0999 V2000
    1.1297    7.7064    1.7133 F   0  0  0  0  0  0  0  0  0  0  0  0
    0.3855    7.0540    0.7982 C   0  0  0  0  0  0  0  0  0  0  0  0
    0.4384    5.7254    0.6934 C   0  0  0  0  0  0  0  0  0  0  0  0
    1.2909    4.9940    1.5022 O   0  0  0  0  0  0  0  0  0  0  0  0
    0.6900    3.7972    1.9892 C   0  0  2  0  0  0  0  0  0  0  0  0
    1.5414    3.1523    2.9581 O   0  0  0  0  0  0  0  0  0  0  0  0
    1.8816    3.8154    4.1285 C   0  0  0  0  0  0  0  0  0  0  0  0
    2.6638    3.1980    5.0374 C   0  0  0  0  0  0  0  0  0  0  0  0
    3.0737    3.7972    6.2313 O   0  0  0  0  0  0  0  0  0  0  0  0
    2.6203    5.0834    6.5491 C   0  0  0  0  0  0  0  0  0  0  0  0
    1.8075    5.7604    5.7152 C   0  0  0  0  0  0  0  0  0  0  0  0
    1.3845    5.2163    4.3813 C   0  0  0  0  0  0  0  0  0  0  0  0
    1.2807    7.1317    6.0488 C   0  0  3  0  0  0  0  0  0  0  0  0
   -0.1295    7.0405    6.1458 O   0  0  0  0  0  0  0  0  0  0  0  0
   -0.7768    8.2121    6.4058 C   0  0  0  0  0  0  0  0  0  0  0  0
   -1.9700    8.3453    6.2001 O   0  0  0  0  0  0  0  0  0  0  0  0
    0.0214    9.2128    6.8563 O   0  0  0  0  0  0  0  0  0  0  0  0
    1.1022    8.8936    7.7231 C   0  0  3  0  0  0  0  0  0  0  0  0
    1.7409    7.5931    7.3761 C   0  0  0  0  0  0  0  0  0  0  0  0
    2.5853    6.8812    8.1530 C   0  0  0  0  0  0  0  0  0  0  0  0
    3.0339    5.6345    7.7436 O   0  3  0  0  0  0  0  0  0  0  0  0
    3.0604    7.3360    9.4798 C   0  0  0  0  0  0  0  0  0  0  0  0
    2.3665    6.9621   10.6754 O   0  0  0  0  0  0  0  0  0  0  0  0
    3.6617    6.3987   10.3912 O   0  0  0  0  0  0  0  0  0  0  0  0
    2.1242    9.8535    7.5486 O   0  0  0  0  0  0  0  0  0  0  0  0
    3.0970    1.7857    4.8537 C   0  0  0  0  0  0  0  0  0  0  0  0
    2.2981    0.8060    5.4431 C   0  0  0  0  0  0  0  0  0  0  0  0
    2.6218   -0.5183    5.2770 C   0  0  0  0  0  0  0  0  0  0  0  0
    1.8580   -1.4594    5.8374 F   0  0  0  0  0  0  0  0  0  0  0  0
    3.7297   -0.8798    4.5448 C   0  0  0  0  0  0  0  0  0  0  0  0
    4.5540    0.0990    3.9580 C   0  0  0  0  0  0  0  0  0  0  0  0
    4.2094    1.4428    4.1149 N   0  3  0  0  0  0  0  0  0  0  0  0
    4.9871    2.3912    3.5229 C   0  0  0  0  0  0  0  0  0  0  0  0
    6.1040    2.0734    2.7669 C   0  0  0  0  0  0  0  0  0  0  0  0
    6.9159    3.1501    2.2142 C   0  0  0  0  0  0  0  0  0  0  0  0
    6.6409    4.3072    2.4860 O   0  0  0  0  0  0  0  0  0  0  0  0
    8.1073    2.7433    1.3769 C   0  0  0  0  0  0  0  0  0  0  0  0
    9.0297    3.5200    1.1955 O   0  0  0  0  0  0  0  0  0  0  0  0
    8.0193    1.3346    0.8345 C   0  0  1  0  0  0  0  0  0  0  0  0
    7.5424    0.3842    1.8091 O   0  0  0  0  0  0  0  0  0  0  0  0
    6.4665    0.7634    2.5705 C   0  0  0  0  0  0  0  0  0  0  0  0
    5.7362   -0.2428    3.2160 C   0  0  0  0  0  0  0  0  0  0  0  0
    6.0813   -1.5822    2.9375 N   0  0  0  0  0  0  0  0  0  0  0  0
    7.1753    1.2850   -0.3977 C   0  0  1  0  0  0  0  0  0  0  0  0
    5.7986    1.7338   -0.2612 O   0  0  0  0  0  0  0  0  0  0  0  0
    7.8326    1.6603   -1.5995 O   0  0  0  0  0  0  0  0  0  0  0  0
    7.4309    0.3770   -1.5178 C   0  0  0  0  0  0  0  0  0  0  0  0
    6.6133   -0.2305   -2.1793 O   0  0  0  0  0  0  0  0  0  0  0  0
    0.5020    2.8643    0.8072 C   0  0  0  0  0  0  0  0  0  0  0  0
    0.9047    1.7116    0.7583 O   0  0  0  0  0  0  0  0  0  0  0  0
   -0.2264    3.5307   -0.3437 C   0  0  0  0  0  0  0  0  0  0  0  0
   -0.6368    2.8648   -1.2770 O   0  0  0  0  0  0  0  0  0  0  0  0
   -0.4339    5.0388   -0.2981 C   0  0  0  0  0  0  0  0  0  0  0  0
   -1.2821    5.6051   -0.9605 O   0  0  0  0  0  0  0  0  0  0  0  0
  1  2  1  0  0  0  0
  2  3  2  0  0  0  0
  3  4  1  0  0  0  0
  3 53  1  0  0  0  0
  4  5  1  0  0  0  0
  5  6  1  1  0  0  0
  5 49  1  0  0  0  0
  6  7  1  0  0  0  0
  7  8  2  0  0  0  0
  7 12  1  0  0  0  0
  8  9  1  0  0  0  0
  8 26  1  0  0  0  0
  9 10  1  0  0  0  0
 10 11  2  0  0  0  0
 10 21  1  0  0  0  0
 11 12  1  0  0  0  0
 11 13  1  0  0  0  0
 13 14  1  0  0  0  0
 13 19  1  0  0  0  0
 14 15  1  0  0  0  0
 15 16  2  0  0  0  0
 15 17  1  0  0  0  0
 17 18  1  0  0  0  0
 18 19  1  0  0  0  0
 18 25  1  0  0  0  0
 19 20  2  0  0  0  0
 20 21  1  0  0  0  0
 20 22  1  0  0  0  0
 22 23  1  0  0  0  0
 22 24  1  0  0  0  0
 23 24  1  0  0  0  0
 26 27  2  0  0  0  0
 26 32  1  0  0  0  0
 27 28  1  0  0  0  0
 28 29  1  0  0  0  0
 28 30  2  0  0  0  0
 30 31  1  0  0  0  0
 31 32  2  0  0  0  0
 31 42  1  0  0  0  0
 32 33  1  0  0  0  0
 33 34  2  0  0  0  0
 34 35  1  0  0  0  0
 34 41  1  0  0  0  0
 35 36  2  0  0  0  0
 35 37  1  0  0  0  0
 37 38  2  0  0  0  0
 39 37  1  1  0  0  0
 39 40  1  0  0  0  0
 39 44  1  0  0  0  0
 40 41  1  0  0  0  0
 41 42  2  0  0  0  0
 42 43  1  0  0  0  0
 44 45  1  1  0  0  0
 44 46  1  0  0  0  0
 44 47  1  0  0  0  0
 46 47  1  0  0  0  0
 47 48  2  0  0  0  0
 49 50  2  0  0  0  0
 49 51  1  0  0  0  0
 51 52  2  0  0  0  0
 51 53  1  0  0  0  0
 53 54  2  0  0  0  0
M  CHG  2  21   1  32   1
M  END
$$$$