
 OpenBabel11242000423D

 54 62  0  0  1  0  0  0  0  0999 V2000
    1.3846    7.3318    3.7187 O   0  0  0  0  0  0  0  0  0  0  0  0
    1.3882    6.9404    2.4060 C   0  0  0  0  0  0  0  0  0  0  0  0
    1.8672    5.7604    1.9924 C   0  0  0  0  0  0  0  0  0  0  0  0
    2.4683    4.8647    2.8569 O   0  0  0  0  0  0  0  0  0  0  0  0
    2.0478    3.5197    2.6841 C   0  0  2  0  0  0  0  0  0  0  0  0
    2.8298    2.5876    3.4784 O   0  0  0  0  0  0  0  0  0  0  0  0
    2.8025    2.6394    4.8604 C   0  0  0  0  0  0  0  0  0  0  0  0
    3.0352    1.5257    5.5847 C   0  0  0  0  0  0  0  0  0  0  0  0
    3.1705    1.5458    6.9643 O   0  0  0  0  0  0  0  0  0  0  0  0
    3.0495    2.7410    7.6622 C   0  0  0  0  0  0  0  0  0  0  0  0
    2.7696    3.9067    7.0625 C   0  0  0  0  0  0  0  0  0  0  0  0
    2.6411    3.9750    5.5555 C   0  0  0  0  0  0  0  0  0  0  0  0
    2.5934    5.2359    7.7520 C   0  0  3  0  0  0  0  0  0  0  0  0
    1.2157    5.5819    7.6890 O   0  0  0  0  0  0  0  0  0  0  0  0
    0.8209    6.7569    8.2452 C   0  0  0  0  0  0  0  0  0  0  0  0
   -0.2880    7.2235    8.0260 O   0  0  0  0  0  0  0  0  0  0  0  0
    1.7168    7.3891    9.0433 O   0  0  0  0  0  0  0  0  0  0  0  0
    2.8790    6.7600    9.5840 C   0  0  3  0  0  0  0  0  0  0  0  0
    2.9956    5.3323    9.1733 C   0  0  0  0  0  0  0  0  0  0  0  0
    3.3761    4.3329    9.9895 C   0  0  0  0  0  0  0  0  0  0  0  0
    3.2166    2.6454    9.4173 S   0  3  0  0  0  0  0  0  0  0  0  0
    3.8564    4.4793   11.3841 C   0  0  0  0  0  0  0  0  0  0  0  0
    4.8394    3.5946   11.9545 O   0  0  0  0  0  0  0  0  0  0  0  0
    5.1779    4.9650   11.6762 O   0  0  0  0  0  0  0  0  0  0  0  0
    4.0256    7.4416    9.1074 O   0  0  0  0  0  0  0  0  0  0  0  0
    3.2382    0.1762    5.0105 C   0  0  0  0  0  0  0  0  0  0  0  0
    4.5433   -0.2330    4.7584 C   0  0  0  0  0  0  0  0  0  0  0  0
    4.7967   -1.4668    4.3090 N   0  3  0  0  0  0  0  0  0  0  0  0
    6.0719   -1.8351    4.0814 F   0  0  0  0  0  0  0  0  0  0  0  0
    3.8466   -2.3537    4.0862 N   0  0  0  0  0  0  0  0  0  0  0  0
    2.5693   -2.0179    4.2813 C   0  0  0  0  0  0  0  0  0  0  0  0
    2.1953   -0.7427    4.7481 C   0  0  0  0  0  0  0  0  0  0  0  0
    0.8139   -0.4734    4.9164 C   0  0  0  0  0  0  0  0  0  0  0  0
   -0.1583   -1.4410    4.6052 C   0  0  0  0  0  0  0  0  0  0  0  0
   -1.5858   -1.1210    4.7025 C   0  0  0  0  0  0  0  0  0  0  0  0
   -1.9667   -0.0440    5.1281 O   0  0  0  0  0  0  0  0  0  0  0  0
   -2.5488   -2.1859    4.2288 C   0  0  0  0  0  0  0  0  0  0  0  0
   -3.6541   -1.8839    3.8072 O   0  0  0  0  0  0  0  0  0  0  0  0
   -2.0108   -3.5902    4.3420 C   0  0  1  0  0  0  0  0  0  0  0  0
   -0.6523   -3.7165    3.8883 O   0  0  0  0  0  0  0  0  0  0  0  0
    0.2152   -2.7024    4.1780 C   0  0  0  0  0  0  0  0  0  0  0  0
    1.5764   -2.9641    4.0182 C   0  0  0  0  0  0  0  0  0  0  0  0
    1.9516   -4.1850    3.6002 F   0  0  0  0  0  0  0  0  0  0  0  0
   -2.1550   -4.1310    5.7377 C   0  0  1  0  0  0  0  0  0  0  0  0
   -1.4959   -3.3893    6.7898 O   0  0  0  0  0  0  0  0  0  0  0  0
   -3.4591   -4.6052    6.0877 O   0  0  0  0  0  0  0  0  0  0  0  0
   -2.4882   -5.5216    5.9935 C   0  0  0  0  0  0  0  0  0  0  0  0
   -2.3995   -6.5301    5.3160 O   0  0  0  0  0  0  0  0  0  0  0  0
    2.2569    2.9970    1.2660 C   0  0  0  0  0  0  0  0  0  0  0  0
    2.4275    1.8164    0.9784 O   0  0  0  0  0  0  0  0  0  0  0  0
    2.2288    4.0605    0.1936 C   0  0  0  0  0  0  0  0  0  0  0  0
    2.5754    3.7849   -0.9445 O   0  0  0  0  0  0  0  0  0  0  0  0
    1.7933    5.4634    0.5392 C   0  0  0  0  0  0  0  0  0  0  0  0
    1.3997    6.2451   -0.3084 O   0  0  0  0  0  0  0  0  0  0  0  0
  1  2  1  0  0  0  0
  2  3  2  0  0  0  0
  3  4  1  0  0  0  0
  3 53  1  0  0  0  0
  4  5  1  0  0  0  0
  5  6  1  1  0  0  0
  5 49  1  0  0  0  0
  6  7  1  0  0  0  0
  7  8  2  0  0  0  0
  7 12  1  0  0  0  0
  8  9  1  0  0  0  0
  8 26  1  0  0  0  0
  9 10  1  0  0  0  0
 10 11  2  0  0  0  0
 10 21  1  0  0  0  0
 11 12  1  0  0  0  0
 11 13  1  0  0  0  0
 13 14  1  0  0  0  0
 13 19  1  0  0  0  0
 14 15  1  0  0  0  0
 15 16  2  0  0  0  0
 15 17  1  0  0  0  0
 17 18  1  0  0  0  0
 18 19  1  0  0  0  0
 18 25  1  0  0  0  0
 19 20  2  0  0  0  0
 20 21  1  0  0  0  0
 20 22  1  0  0  0  0
 22 23  1  0  0  0  0
 22 24  1  0  0  0  0
 23 24  1  0  0  0  0
 26 27  2  0  0  0  0
 26 32  1  0  0  0  0
 27 28  1  0  0  0  0
 28 29  1  0  0  0  0
 28 30  2  0  0  0  0
 30 31  1  0  0  0  0
 31 32  2  0  0  0  0
 31 42  1  0  0  0  0
 32 33  1  0  0  0  0
 33 34  2  0  0  0  0
 34 35  1  0  0  0  0
 34 41  1  0  0  0  0
 35 36  2  0  0  0  0
 35 37  1  0  0  0  0
 37 38  2  0  0  0  0
 39 37  1  1  0  0  0
 39 40  1  0  0  0  0
 39 44  1  0  0  0  0
 40 41  1  0  0  0  0
 41 42  2  0  0  0  0
 42 43  1  0  0  0  0
 44 45  1  1  0  0  0
 44 46  1  0  0  0  0
 44 47  1  0  0  0  0
 46 47  1  0  0  0  0
 47 48  2  0  0  0  0
 49 50  2  0  0  0  0
 49 51  1  0  0  0  0
 51 52  2  0  0  0  0
 51 53  1  0  0  0  0
 53 54  2  0  0  0  0
M  CHG  2  21   1  28   1
M  END
$$$$