
 OpenBabel11272002023D

 54 63  0  0  1  0  0  0  0  0999 V2000
   -8.6516  -13.5358   -7.6582 F   0  0  0  0  0  0  0  0  0  0  0  0
   -8.1515  -14.7819   -7.7522 C   0  0  0  0  0  0  0  0  0  0  0  0
   -7.0732  -15.1556   -7.0583 C   0  0  0  0  0  0  0  0  0  0  0  0
   -6.3781  -14.2593   -6.2561 O   0  0  0  0  0  0  0  0  0  0  0  0
   -5.4361  -14.7845   -5.2626 C   0  0  2  0  0  0  0  0  0  0  0  0
   -5.0559  -13.7199   -4.3119 O   0  0  0  0  0  0  0  0  0  0  0  0
   -6.1130  -13.1261   -3.5608 C   0  0  0  0  0  0  0  0  0  0  0  0
   -6.0822  -11.9459   -2.8461 C   0  0  0  0  0  0  0  0  0  0  0  0
   -7.3076  -11.3487   -2.3839 O   0  0  0  0  0  0  0  0  0  0  0  0
   -8.5446  -11.8118   -2.8708 C   0  0  0  0  0  0  0  0  0  0  0  0
   -8.6234  -13.0209   -3.4291 C   0  0  0  0  0  0  0  0  0  0  0  0
   -7.4294  -13.8675   -3.6033 C   0  0  0  0  0  0  0  0  0  0  0  0
   -9.8510  -13.5345   -4.1185 C   0  0  3  0  0  0  0  0  0  0  0  0
  -10.1873  -14.8177   -3.5758 O   0  0  0  0  0  0  0  0  0  0  0  0
  -11.1819  -15.4240   -4.2284 C   0  0  0  0  0  0  0  0  0  0  0  0
  -11.3331  -16.6750   -4.1815 O   0  0  0  0  0  0  0  0  0  0  0  0
  -11.9686  -14.6283   -4.9661 O   0  0  0  0  0  0  0  0  0  0  0  0
  -12.2323  -13.3150   -4.4932 C   0  0  3  0  0  0  0  0  0  0  0  0
  -11.0143  -12.6635   -3.9124 C   0  0  0  0  0  0  0  0  0  0  0  0
  -10.9137  -11.4548   -3.2865 C   0  0  0  0  0  0  0  0  0  0  0  0
   -9.6711  -11.0094   -2.8014 O   0  3  0  0  0  0  0  0  0  0  0  0
  -12.0749  -10.5430   -3.0920 C   0  0  0  0  0  0  0  0  0  0  0  0
  -12.3661   -9.5217   -4.0569 O   0  0  0  0  0  0  0  0  0  0  0  0
  -13.2963  -10.6006   -3.8457 O   0  0  0  0  0  0  0  0  0  0  0  0
  -12.6299  -12.5515   -5.5985 O   0  0  0  0  0  0  0  0  0  0  0  0
   -4.9165  -11.0392   -2.5005 C   0  0  0  0  0  0  0  0  0  0  0  0
   -4.7721   -9.9985   -3.3540 N   0  0  0  0  0  0  0  0  0  0  0  0
   -3.7589   -9.1262   -3.1215 C   0  0  0  0  0  0  0  0  0  0  0  0
   -3.5741   -8.1516   -4.0253 F   0  0  0  0  0  0  0  0  0  0  0  0
   -2.8899   -9.1882   -2.0442 C   0  0  0  0  0  0  0  0  0  0  0  0
   -3.0338  -10.2332   -1.1234 C   0  0  0  0  0  0  0  0  0  0  0  0
   -4.0984  -11.1630   -1.3283 C   0  0  0  0  0  0  0  0  0  0  0  0
   -4.2482  -12.1696   -0.3576 C   0  0  0  0  0  0  0  0  0  0  0  0
   -3.2333  -12.4170    0.5839 C   0  0  0  0  0  0  0  0  0  0  0  0
   -2.2058  -11.5096    0.8159 C   0  0  0  0  0  0  0  0  0  0  0  0
   -2.1413  -10.3951   -0.0213 C   0  0  0  0  0  0  0  0  0  0  0  0
   -1.1811   -9.4781    0.1924 F   0  0  0  0  0  0  0  0  0  0  0  0
   -1.2791  -11.6689    1.8327 O   0  0  0  0  0  0  0  0  0  0  0  0
   -1.4767  -12.8534    2.6516 C   0  0  1  0  0  0  0  0  0  0  0  0
   -1.8785  -14.0581    1.9288 C   0  0  0  0  0  0  0  0  0  0  0  0
   -1.3052  -15.1256    1.8920 O   0  0  0  0  0  0  0  0  0  0  0  0
   -3.1872  -13.7348    1.2358 C   0  0  0  0  0  0  0  0  0  0  0  0
   -4.1323  -14.5024    1.2316 O   0  0  0  0  0  0  0  0  0  0  0  0
   -0.7141  -13.0013    3.8356 O   0  0  0  0  0  0  0  0  0  0  0  0
   -2.1547  -12.7554    3.9799 C   0  0  1  0  0  0  0  0  0  0  0  0
   -2.5693  -11.4130    4.2201 O   0  0  0  0  0  0  0  0  0  0  0  0
   -2.4110  -12.1400    5.2988 C   0  0  0  0  0  0  0  0  0  0  0  0
   -3.1791  -12.4621    6.2023 O   0  0  0  0  0  0  0  0  0  0  0  0
   -4.4554  -15.5284   -6.1904 C   0  0  0  0  0  0  0  0  0  0  0  0
   -3.3169  -15.1953   -6.4710 O   0  0  0  0  0  0  0  0  0  0  0  0
   -5.1397  -16.7002   -6.9071 C   0  0  0  0  0  0  0  0  0  0  0  0
   -4.5586  -17.7426   -7.1514 O   0  0  0  0  0  0  0  0  0  0  0  0
   -6.5913  -16.5321   -7.3001 C   0  0  0  0  0  0  0  0  0  0  0  0
   -7.2812  -17.4296   -7.7554 O   0  0  0  0  0  0  0  0  0  0  0  0
  1  2  1  0  0  0  0
  2  3  2  0  0  0  0
  3  4  1  0  0  0  0
  3 53  1  0  0  0  0
  4  5  1  0  0  0  0
  5  6  1  6  0  0  0
  5 49  1  0  0  0  0
  6  7  1  0  0  0  0
  7  8  2  0  0  0  0
  7 12  1  0  0  0  0
  8  9  1  0  0  0  0
  8 26  1  0  0  0  0
  9 10  1  0  0  0  0
 10 11  2  0  0  0  0
 10 21  1  0  0  0  0
 11 12  1  0  0  0  0
 11 13  1  0  0  0  0
 13 14  1  0  0  0  0
 13 19  1  0  0  0  0
 14 15  1  0  0  0  0
 15 16  2  0  0  0  0
 15 17  1  0  0  0  0
 17 18  1  0  0  0  0
 18 19  1  0  0  0  0
 18 25  1  0  0  0  0
 19 20  2  0  0  0  0
 20 21  1  0  0  0  0
 20 22  1  0  0  0  0
 22 23  1  0  0  0  0
 22 24  1  0  0  0  0
 23 24  1  0  0  0  0
 26 27  2  0  0  0  0
 26 32  1  0  0  0  0
 27 28  1  0  0  0  0
 28 29  1  0  0  0  0
 28 30  2  0  0  0  0
 30 31  1  0  0  0  0
 31 32  2  0  0  0  0
 31 36  1  0  0  0  0
 32 33  1  0  0  0  0
 33 34  2  0  0  0  0
 34 35  1  0  0  0  0
 34 42  1  0  0  0  0
 35 36  2  0  0  0  0
 35 38  1  0  0  0  0
 36 37  1  0  0  0  0
 39 38  1  6  0  0  0
 39 40  1  0  0  0  0
 39 44  1  0  0  0  0
 39 45  1  0  0  0  0
 40 41  2  0  0  0  0
 40 42  1  0  0  0  0
 42 43  2  0  0  0  0
 45 44  1  1  0  0  0
 45 46  1  0  0  0  0
 45 47  1  0  0  0  0
 46 47  1  0  0  0  0
 47 48  2  0  0  0  0
 49 50  2  0  0  0  0
 49 51  1  0  0  0  0
 51 52  2  0  0  0  0
 51 53  1  0  0  0  0
 53 54  2  0  0  0  0
M  CHG  1  21   1
M  END
$$$$