
 OpenBabel09232009483D

 51 59  0  0  1  0  0  0  0  0999 V2000
    5.5916    2.9672   -1.2858 O   0  0  0  0  0  0  0  0  0  0  0  0
    5.5232    1.9009   -0.8342 C   0  0  0  0  0  0  0  0  0  0  0  0
    5.4903    0.6757   -0.3535 C   0  0  0  0  0  0  0  0  0  0  0  0
    6.1000   -0.3257   -1.1052 O   0  0  0  0  0  0  0  0  0  0  0  0
    6.6549   -1.4063   -0.3644 C   0  0  2  0  0  0  0  0  0  0  0  0
    6.8062   -2.5449   -1.2129 O   0  0  0  0  0  0  0  0  0  0  0  0
    7.7315   -2.6462   -2.2293 C   0  0  0  0  0  0  0  0  0  0  0  0
    8.6277   -1.7400   -2.7022 C   0  0  0  0  0  0  0  0  0  0  0  0
    9.5132   -2.0489   -3.7404 O   0  0  0  0  0  0  0  0  0  0  0  0
    9.5824   -3.3238   -4.2599 C   0  0  0  0  0  0  0  0  0  0  0  0
    8.7318   -4.3377   -3.8647 C   0  0  0  0  0  0  0  0  0  0  0  0
    7.6786   -4.0410   -2.8425 C   0  0  0  0  0  0  0  0  0  0  0  0
    8.9164   -5.5950   -4.4684 C   0  0  0  0  0  0  0  0  0  0  0  0
    8.1164   -6.7008   -4.1324 N   0  0  0  0  0  0  0  0  0  0  0  0
    8.3163   -7.9740   -4.5769 C   0  0  0  0  0  0  0  0  0  0  0  0
    7.6081   -8.9051   -4.2084 O   0  0  0  0  0  0  0  0  0  0  0  0
    9.3582   -8.1802   -5.4172 N   0  0  0  0  0  0  0  0  0  0  0  0
   10.0621   -7.1249   -6.0946 C   0  0  0  0  0  0  0  0  0  0  0  0
    9.9131   -5.7861   -5.4331 C   0  0  0  0  0  0  0  0  0  0  0  0
   10.7050   -4.6935   -5.8032 C   0  0  0  0  0  0  0  0  0  0  0  0
   10.5460   -3.4853   -5.1953 N   0  0  0  0  0  0  0  0  0  0  0  0
   11.7715   -4.8006   -6.8688 C   0  0  0  0  0  0  0  0  0  0  0  0
   11.3677   -5.1786   -8.1957 O   0  0  0  0  0  0  0  0  0  0  0  0
   11.7632   -3.8215   -7.9201 O   0  0  0  0  0  0  0  0  0  0  0  0
    8.8892   -0.3531   -2.2124 C   0  0  0  0  0  0  0  0  0  0  0  0
    9.7596   -0.3018   -1.1674 N   0  0  0  0  0  0  0  0  0  0  0  0
   10.1618    0.9154   -0.7366 C   0  0  0  0  0  0  0  0  0  0  0  0
    9.7341    2.1108   -1.2826 C   0  0  0  0  0  0  0  0  0  0  0  0
    8.8416    2.0769   -2.3513 C   0  0  0  0  0  0  0  0  0  0  0  0
    8.3604    0.8241   -2.8175 C   0  0  0  0  0  0  0  0  0  0  0  0
    7.3567    0.8583   -3.8121 C   0  0  0  0  0  0  0  0  0  0  0  0
    6.9125    2.0773   -4.3560 C   0  0  0  0  0  0  0  0  0  0  0  0
    7.4936    3.2837   -3.9865 C   0  0  0  0  0  0  0  0  0  0  0  0
    8.4267    3.2833   -2.9534 C   0  0  0  0  0  0  0  0  0  0  0  0
    7.2107    4.4984   -4.5473 O   0  0  0  0  0  0  0  0  0  0  0  0
    6.4340    4.4906   -5.7590 C   0  0  2  0  0  0  0  0  0  0  0  0
    5.3254    3.4639   -5.7448 C   0  0  0  0  0  0  0  0  0  0  0  0
    4.1661    3.6775   -6.0660 O   0  0  0  0  0  0  0  0  0  0  0  0
    5.7880    2.0953   -5.2987 C   0  0  0  0  0  0  0  0  0  0  0  0
    5.2610    1.0710   -5.6978 O   0  0  0  0  0  0  0  0  0  0  0  0
    7.3314    4.4182   -6.9693 C   0  0  1  0  0  0  0  0  0  0  0  0
    8.2679    5.5044   -7.1339 O   0  0  0  0  0  0  0  0  0  0  0  0
    7.8779    3.1349   -7.2849 O   0  0  0  0  0  0  0  0  0  0  0  0
    6.9965    3.6521   -8.1629 C   0  0  0  0  0  0  0  0  0  0  0  0
    5.9593    3.1899   -8.5838 O   0  0  0  0  0  0  0  0  0  0  0  0
    5.8178   -1.8895    0.8301 C   0  0  0  0  0  0  0  0  0  0  0  0
    6.1531   -2.7316    1.6506 O   0  0  0  0  0  0  0  0  0  0  0  0
    4.5272   -1.1323    1.0084 C   0  0  0  0  0  0  0  0  0  0  0  0
    3.5002   -1.6874    1.3533 O   0  0  0  0  0  0  0  0  0  0  0  0
    4.5538    0.3352    0.7298 C   0  0  0  0  0  0  0  0  0  0  0  0
    3.9118    1.1501    1.3563 O   0  0  0  0  0  0  0  0  0  0  0  0
  1  2  2  0  0  0  0
  2  3  2  0  0  0  0
  3  4  1  0  0  0  0
  3 50  1  0  0  0  0
  4  5  1  0  0  0  0
  5  6  1  6  0  0  0
  5 46  1  0  0  0  0
  6  7  1  0  0  0  0
  7  8  2  0  0  0  0
  7 12  1  0  0  0  0
  8  9  1  0  0  0  0
  8 25  1  0  0  0  0
  9 10  1  0  0  0  0
 10 11  2  0  0  0  0
 10 21  1  0  0  0  0
 11 12  1  0  0  0  0
 11 13  1  0  0  0  0
 13 14  1  0  0  0  0
 13 19  2  0  0  0  0
 14 15  1  0  0  0  0
 15 16  2  0  0  0  0
 15 17  1  0  0  0  0
 17 18  1  0  0  0  0
 18 19  1  0  0  0  0
 19 20  1  0  0  0  0
 20 21  2  0  0  0  0
 20 22  1  0  0  0  0
 22 23  1  0  0  0  0
 22 24  1  0  0  0  0
 23 24  1  0  0  0  0
 25 26  2  0  0  0  0
 25 30  1  0  0  0  0
 26 27  1  0  0  0  0
 27 28  2  0  0  0  0
 28 29  1  0  0  0  0
 29 30  2  0  0  0  0
 29 34  1  0  0  0  0
 30 31  1  0  0  0  0
 31 32  2  0  0  0  0
 32 33  1  0  0  0  0
 32 39  1  0  0  0  0
 33 34  2  0  0  0  0
 33 35  1  0  0  0  0
 36 35  1  1  0  0  0
 36 37  1  0  0  0  0
 36 41  1  0  0  0  0
 37 38  2  0  0  0  0
 37 39  1  0  0  0  0
 39 40  2  0  0  0  0
 41 42  1  6  0  0  0
 41 43  1  0  0  0  0
 41 44  1  0  0  0  0
 43 44  1  0  0  0  0
 44 45  2  0  0  0  0
 46 47  2  0  0  0  0
 46 48  1  0  0  0  0
 48 49  2  0  0  0  0
 48 50  1  0  0  0  0
 50 51  2  0  0  0  0
M  END
$$$$