
 OpenBabel11212018553D

 55 63  0  0  1  0  0  0  0  0999 V2000
    1.3097   -3.9404   -4.7682 O   0  0  0  0  0  0  0  0  0  0  0  0
    1.5062   -2.7116   -4.1858 C   0  0  0  0  0  0  0  0  0  0  0  0
    1.8162   -2.5684   -2.8924 C   0  0  0  0  0  0  0  0  0  0  0  0
    1.9193   -3.6790   -2.0715 O   0  0  0  0  0  0  0  0  0  0  0  0
    2.9588   -3.5577   -1.1103 C   0  0  2  0  0  0  0  0  0  0  0  0
    3.0841   -4.7736   -0.3486 O   0  0  0  0  0  0  0  0  0  0  0  0
    3.3937   -5.9421   -1.0238 C   0  0  0  0  0  0  0  0  0  0  0  0
    2.9667   -7.1447   -0.5713 C   0  0  0  0  0  0  0  0  0  0  0  0
    3.2835   -8.3288   -1.2570 O   0  0  0  0  0  0  0  0  0  0  0  0
    3.9079   -8.2828   -2.5066 C   0  0  0  0  0  0  0  0  0  0  0  0
    4.4216   -7.1330   -2.9762 C   0  0  0  0  0  0  0  0  0  0  0  0
    4.2761   -5.8382   -2.2429 C   0  0  0  0  0  0  0  0  0  0  0  0
    5.1296   -7.0519   -4.2964 C   0  0  3  0  0  0  0  0  0  0  0  0
    6.4798   -6.7197   -4.0394 O   0  0  0  0  0  0  0  0  0  0  0  0
    7.2760   -6.5731   -5.1340 C   0  0  0  0  0  0  0  0  0  0  0  0
    8.3405   -5.9829   -5.0752 O   0  0  0  0  0  0  0  0  0  0  0  0
    6.7826   -7.0938   -6.2842 O   0  0  0  0  0  0  0  0  0  0  0  0
    5.8966   -8.2089   -6.2781 C   0  0  3  0  0  0  0  0  0  0  0  0
    5.1546   -8.3528   -4.9959 C   0  0  0  0  0  0  0  0  0  0  0  0
    4.5801   -9.4699   -4.4956 C   0  0  0  0  0  0  0  0  0  0  0  0
    3.9783   -9.4482   -3.2418 O   0  3  0  0  0  0  0  0  0  0  0  0
    4.5431  -10.7747   -5.1998 C   0  0  0  0  0  0  0  0  0  0  0  0
    5.1699  -11.9304   -4.6281 O   0  0  0  0  0  0  0  0  0  0  0  0
    3.7334  -11.8492   -4.6882 O   0  0  0  0  0  0  0  0  0  0  0  0
    4.8936   -7.9886   -7.2498 O   0  0  0  0  0  0  0  0  0  0  0  0
    2.1340   -7.3213    0.6779 C   0  0  0  0  0  0  0  0  0  0  0  0
    2.3445   -6.4661    1.7608 C   0  0  0  0  0  0  0  0  0  0  0  0
    1.6151   -6.5555    2.8734 N   0  3  0  0  0  0  0  0  0  0  0  0
    1.8277   -5.6724    3.8689 F   0  0  0  0  0  0  0  0  0  0  0  0
    0.6919   -7.4708    3.0414 N   0  0  0  0  0  0  0  0  0  0  0  0
    0.4068   -8.3467    2.0737 C   0  0  0  0  0  0  0  0  0  0  0  0
    1.1339   -8.3173    0.8553 C   0  0  0  0  0  0  0  0  0  0  0  0
    0.8179   -9.2873   -0.1170 C   0  0  0  0  0  0  0  0  0  0  0  0
   -0.1484  -10.2670    0.0951 C   0  0  0  0  0  0  0  0  0  0  0  0
   -0.3369  -11.3185   -0.9096 C   0  0  0  0  0  0  0  0  0  0  0  0
    0.4353  -11.4126   -1.8553 O   0  0  0  0  0  0  0  0  0  0  0  0
   -1.5101  -12.2480   -0.6902 C   0  0  0  0  0  0  0  0  0  0  0  0
   -1.5970  -13.2886   -1.3229 O   0  0  0  0  0  0  0  0  0  0  0  0
   -2.5449  -11.7070    0.2676 C   0  0  1  0  0  0  0  0  0  0  0  0
   -1.9564  -11.1198    1.4483 O   0  0  0  0  0  0  0  0  0  0  0  0
   -0.9106  -10.2558    1.2428 C   0  0  0  0  0  0  0  0  0  0  0  0
   -0.6319   -9.3055    2.2519 C   0  0  0  0  0  0  0  0  0  0  0  0
   -1.3846   -9.4227    3.4709 N   0  0  0  0  0  0  0  0  0  0  0  0
   -1.6850   -8.2526    4.1949 N   0  0  0  0  0  0  0  0  0  0  0  0
   -3.4673  -10.7334   -0.4207 C   0  0  1  0  0  0  0  0  0  0  0  0
   -2.8644   -9.5925   -1.0688 O   0  0  0  0  0  0  0  0  0  0  0  0
   -4.5522  -11.3072   -1.1409 O   0  0  0  0  0  0  0  0  0  0  0  0
   -4.8758  -10.6329   -0.0226 C   0  0  0  0  0  0  0  0  0  0  0  0
   -5.4202  -11.0055    0.9891 O   0  0  0  0  0  0  0  0  0  0  0  0
    2.6117   -2.4503   -0.1381 C   0  0  0  0  0  0  0  0  0  0  0  0
    2.5959   -2.5723    1.0793 O   0  0  0  0  0  0  0  0  0  0  0  0
    2.2695   -1.1580   -0.8463 C   0  0  0  0  0  0  0  0  0  0  0  0
    2.1945   -0.1185   -0.2163 O   0  0  0  0  0  0  0  0  0  0  0  0
    2.0389   -1.1935   -2.3501 C   0  0  0  0  0  0  0  0  0  0  0  0
    2.0956   -0.1933   -3.0414 O   0  0  0  0  0  0  0  0  0  0  0  0
  1  2  1  0  0  0  0
  2  3  2  0  0  0  0
  3  4  1  0  0  0  0
  3 54  1  0  0  0  0
  4  5  1  0  0  0  0
  5  6  1  1  0  0  0
  5 50  1  0  0  0  0
  6  7  1  0  0  0  0
  7  8  2  0  0  0  0
  7 12  1  0  0  0  0
  8  9  1  0  0  0  0
  8 26  1  0  0  0  0
  9 10  1  0  0  0  0
 10 11  2  0  0  0  0
 10 21  1  0  0  0  0
 11 12  1  0  0  0  0
 11 13  1  0  0  0  0
 13 14  1  0  0  0  0
 13 19  1  0  0  0  0
 14 15  1  0  0  0  0
 15 16  2  0  0  0  0
 15 17  1  0  0  0  0
 17 18  1  0  0  0  0
 18 19  1  0  0  0  0
 18 25  1  0  0  0  0
 19 20  2  0  0  0  0
 20 21  1  0  0  0  0
 20 22  1  0  0  0  0
 22 23  1  0  0  0  0
 22 24  1  0  0  0  0
 23 24  1  0  0  0  0
 26 27  2  0  0  0  0
 26 32  1  0  0  0  0
 27 28  1  0  0  0  0
 28 29  1  0  0  0  0
 28 30  2  0  0  0  0
 30 31  1  0  0  0  0
 31 32  2  0  0  0  0
 31 42  1  0  0  0  0
 32 33  1  0  0  0  0
 33 34  2  0  0  0  0
 34 35  1  0  0  0  0
 34 41  1  0  0  0  0
 35 36  2  0  0  0  0
 35 37  1  0  0  0  0
 37 38  2  0  0  0  0
 39 37  1  6  0  0  0
 39 40  1  0  0  0  0
 39 45  1  0  0  0  0
 40 41  1  0  0  0  0
 41 42  2  0  0  0  0
 42 43  1  0  0  0  0
 43 44  1  0  0  0  0
 45 46  1  6  0  0  0
 45 47  1  0  0  0  0
 45 48  1  0  0  0  0
 47 48  1  0  0  0  0
 48 49  2  0  0  0  0
 50 51  2  0  0  0  0
 50 52  1  0  0  0  0
 52 53  2  0  0  0  0
 52 54  1  0  0  0  0
 54 55  2  0  0  0  0
M  CHG  2  21   1  28   1
M  END
$$$$