
 OpenBabel11252023483D

 54 62  0  0  1  0  0  0  0  0999 V2000
    0.2642    3.5888    0.5406 O   0  0  0  0  0  0  0  0  0  0  0  0
    0.0412    3.0421   -0.6945 C   0  0  0  0  0  0  0  0  0  0  0  0
    0.7286    3.3928   -1.7880 C   0  0  0  0  0  0  0  0  0  0  0  0
    1.7405    4.3458   -1.7563 O   0  0  0  0  0  0  0  0  0  0  0  0
    2.7545    4.0891   -2.7140 C   0  0  2  0  0  0  0  0  0  0  0  0
    3.8704    5.0585   -2.6876 O   0  0  0  0  0  0  0  0  0  0  0  0
    3.6527    6.4207   -2.8931 C   0  0  0  0  0  0  0  0  0  0  0  0
    4.6105    7.2422   -3.4107 C   0  0  0  0  0  0  0  0  0  0  0  0
    4.3719    8.6250   -3.5588 O   0  0  0  0  0  0  0  0  0  0  0  0
    3.1806    9.2169   -3.1266 C   0  0  0  0  0  0  0  0  0  0  0  0
    2.1774    8.4573   -2.6532 C   0  0  0  0  0  0  0  0  0  0  0  0
    2.3105    6.9776   -2.4639 C   0  0  0  0  0  0  0  0  0  0  0  0
    0.8229    9.0405   -2.3304 C   0  0  3  0  0  0  0  0  0  0  0  0
    0.4951    8.7552   -0.9897 O   0  0  0  0  0  0  0  0  0  0  0  0
   -0.6827    9.2805   -0.5748 C   0  0  0  0  0  0  0  0  0  0  0  0
   -1.2704    8.7739    0.4378 N   0  0  0  0  0  0  0  0  0  0  0  0
   -1.2102   10.3339   -1.2392 O   0  0  0  0  0  0  0  0  0  0  0  0
   -0.4899   11.0423   -2.1271 C   0  0  0  0  0  0  0  0  0  0  0  0
   -0.8854   12.0503   -2.6916 O   0  0  0  0  0  0  0  0  0  0  0  0
    0.8233   10.5028   -2.4610 C   0  0  0  0  0  0  0  0  0  0  0  0
    1.8780   11.2359   -2.8688 C   0  0  0  0  0  0  0  0  0  0  0  0
    3.0580   10.5940   -3.2204 O   0  3  0  0  0  0  0  0  0  0  0  0
    1.9103   12.7137   -3.0217 C   0  0  0  0  0  0  0  0  0  0  0  0
    3.1393   13.3502   -3.4354 O   0  0  0  0  0  0  0  0  0  0  0  0
    2.0101   13.3046   -4.3245 O   0  0  0  0  0  0  0  0  0  0  0  0
    5.9668    6.7986   -3.9543 C   0  0  0  0  0  0  0  0  0  0  0  0
    6.0763    5.5243   -4.5412 C   0  0  0  0  0  0  0  0  0  0  0  0
    7.1986    5.1443   -5.1517 N   0  3  0  0  0  0  0  0  0  0  0  0
    7.2690    3.9114   -5.6952 F   0  0  0  0  0  0  0  0  0  0  0  0
    8.2382    5.9369   -5.2612 N   0  0  0  0  0  0  0  0  0  0  0  0
    8.1896    7.1684   -4.7282 C   0  0  0  0  0  0  0  0  0  0  0  0
    7.0743    7.6395   -4.0361 N   0  3  0  0  0  0  0  0  0  0  0  0
    7.1393    8.8889   -3.4911 C   0  0  0  0  0  0  0  0  0  0  0  0
    8.1758    9.7748   -3.7606 C   0  0  0  0  0  0  0  0  0  0  0  0
    8.0615   11.1641   -3.3332 C   0  0  0  0  0  0  0  0  0  0  0  0
    7.0325   11.4978   -2.7632 O   0  0  0  0  0  0  0  0  0  0  0  0
    9.1796   12.1102   -3.7331 C   0  0  0  0  0  0  0  0  0  0  0  0
    9.2733   13.2008   -3.1990 O   0  0  0  0  0  0  0  0  0  0  0  0
   10.0463   11.5971   -4.8669 C   0  0  1  0  0  0  0  0  0  0  0  0
   10.3166   10.1794   -4.7816 O   0  0  0  0  0  0  0  0  0  0  0  0
    9.2621    9.3608   -4.4793 C   0  0  0  0  0  0  0  0  0  0  0  0
    9.3204    8.0210   -4.8856 C   0  0  0  0  0  0  0  0  0  0  0  0
   10.4271    7.6272   -5.6708 N   0  0  0  0  0  0  0  0  0  0  0  0
    9.4347   11.9152   -6.2007 C   0  0  1  0  0  0  0  0  0  0  0  0
    8.1087   11.3495   -6.4529 O   0  0  0  0  0  0  0  0  0  0  0  0
    9.6390   13.2231   -6.6852 O   0  0  0  0  0  0  0  0  0  0  0  0
   10.2404   12.2390   -7.3788 C   0  0  0  0  0  0  0  0  0  0  0  0
   10.0569   11.8447   -8.5226 O   0  0  0  0  0  0  0  0  0  0  0  0
    2.2517    3.9280   -4.1602 C   0  0  0  0  0  0  0  0  0  0  0  0
    2.9859    4.2242   -5.1125 O   0  0  0  0  0  0  0  0  0  0  0  0
    0.7979    3.5276   -4.3093 C   0  0  3  0  0  0  0  0  0  0  0  0
    0.3013    2.7941   -3.0913 C   0  0  0  0  0  0  0  0  0  0  0  0
   -0.4301    1.8136   -3.1552 O   0  0  0  0  0  0  0  0  0  0  0  0
    0.0561    4.6564   -4.5304 F   0  0  0  0  0  0  0  0  0  0  0  0
  1  2  1  0  0  0  0
  2  3  2  0  0  0  0
  3  4  1  0  0  0  0
  3 52  1  0  0  0  0
  4  5  1  0  0  0  0
  5  6  1  6  0  0  0
  5 49  1  0  0  0  0
  6  7  1  0  0  0  0
  7  8  2  0  0  0  0
  7 12  1  0  0  0  0
  8  9  1  0  0  0  0
  8 26  1  0  0  0  0
  9 10  1  0  0  0  0
 10 11  2  0  0  0  0
 10 22  1  0  0  0  0
 11 12  1  0  0  0  0
 11 13  1  0  0  0  0
 13 14  1  0  0  0  0
 13 20  1  0  0  0  0
 14 15  1  0  0  0  0
 15 16  2  0  0  0  0
 15 17  1  0  0  0  0
 17 18  1  0  0  0  0
 18 19  2  0  0  0  0
 18 20  1  0  0  0  0
 20 21  2  0  0  0  0
 21 22  1  0  0  0  0
 21 23  1  0  0  0  0
 23 24  1  0  0  0  0
 23 25  1  0  0  0  0
 24 25  1  0  0  0  0
 26 27  2  0  0  0  0
 26 32  1  0  0  0  0
 27 28  1  0  0  0  0
 28 29  1  0  0  0  0
 28 30  2  0  0  0  0
 30 31  1  0  0  0  0
 31 32  2  0  0  0  0
 31 42  1  0  0  0  0
 32 33  1  0  0  0  0
 33 34  2  0  0  0  0
 34 35  1  0  0  0  0
 34 41  1  0  0  0  0
 35 36  2  0  0  0  0
 35 37  1  0  0  0  0
 37 38  2  0  0  0  0
 39 37  1  1  0  0  0
 39 40  1  0  0  0  0
 39 44  1  0  0  0  0
 40 41  1  0  0  0  0
 41 42  2  0  0  0  0
 42 43  1  0  0  0  0
 44 45  1  6  0  0  0
 44 46  1  0  0  0  0
 44 47  1  0  0  0  0
 46 47  1  0  0  0  0
 47 48  2  0  0  0  0
 49 50  2  0  0  0  0
 49 51  1  0  0  0  0
 51 52  1  0  0  0  0
 51 54  1  0  0  0  0
 52 53  2  0  0  0  0
M  CHG  3  22   1  28   1  32   1
M  END
$$$$