
 OpenBabel11222014343D

 54 62  0  0  1  0  0  0  0  0999 V2000
    7.2566   -0.9882    5.1560 O   0  0  0  0  0  0  0  0  0  0  0  0
    7.0060    0.1744    4.4689 C   0  0  0  0  0  0  0  0  0  0  0  0
    5.7975    0.4729    3.9799 C   0  0  0  0  0  0  0  0  0  0  0  0
    4.7589   -0.4341    4.1171 O   0  0  0  0  0  0  0  0  0  0  0  0
    3.4589    0.1275    4.2151 C   0  0  2  0  0  0  0  0  0  0  0  0
    2.4671   -0.9172    4.2821 O   0  0  0  0  0  0  0  0  0  0  0  0
    2.5437   -1.8217    5.3345 C   0  0  0  0  0  0  0  0  0  0  0  0
    2.1357   -3.1093    5.1994 C   0  0  0  0  0  0  0  0  0  0  0  0
    2.2665   -4.0285    6.2596 O   0  0  0  0  0  0  0  0  0  0  0  0
    2.7761   -3.6174    7.5030 C   0  0  0  0  0  0  0  0  0  0  0  0
    3.0595   -2.3240    7.7348 C   0  0  0  0  0  0  0  0  0  0  0  0
    2.9931   -1.2846    6.6666 C   0  0  0  0  0  0  0  0  0  0  0  0
    3.4916   -1.8195    9.0796 C   0  0  3  0  0  0  0  0  0  0  0  0
    2.4352   -1.0302    9.5863 O   0  0  0  0  0  0  0  0  0  0  0  0
    2.5543   -0.5322   10.8479 C   0  0  0  0  0  0  0  0  0  0  0  0
    1.8123    0.3612   11.2540 O   0  0  0  0  0  0  0  0  0  0  0  0
    3.5035   -1.0841   11.6238 O   0  0  0  0  0  0  0  0  0  0  0  0
    4.1590   -2.3222   11.3310 C   0  0  3  0  0  0  0  0  0  0  0  0
    3.6988   -2.9189   10.0438 C   0  0  0  0  0  0  0  0  0  0  0  0
    3.4717   -4.2147    9.7433 C   0  0  0  0  0  0  0  0  0  0  0  0
    2.9665   -4.5677    8.4899 O   0  3  0  0  0  0  0  0  0  0  0  0
    3.7114   -5.3414   10.6799 C   0  0  0  0  0  0  0  0  0  0  0  0
    2.6354   -6.1993   11.0808 O   0  0  0  0  0  0  0  0  0  0  0  0
    3.6641   -6.6990   10.2057 O   0  0  0  0  0  0  0  0  0  0  0  0
    5.5430   -2.0951   11.1572 O   0  0  0  0  0  0  0  0  0  0  0  0
    1.4899   -3.6326    3.9334 C   0  0  0  0  0  0  0  0  0  0  0  0
    0.7366   -2.7337    3.1642 C   0  0  0  0  0  0  0  0  0  0  0  0
    0.1933   -3.0799    1.9961 N   0  3  0  0  0  0  0  0  0  0  0  0
   -0.4624   -2.1477    1.2776 F   0  0  0  0  0  0  0  0  0  0  0  0
    0.2737   -4.2984    1.5166 N   0  0  0  0  0  0  0  0  0  0  0  0
    0.9054   -5.2401    2.2138 C   0  0  0  0  0  0  0  0  0  0  0  0
    1.5407   -4.9725    3.4503 C   0  0  0  0  0  0  0  0  0  0  0  0
    2.1614   -6.0735    4.0944 C   0  0  0  0  0  0  0  0  0  0  0  0
    2.1341   -7.3696    3.5465 C   0  0  0  0  0  0  0  0  0  0  0  0
    2.6919   -8.4952    4.3011 C   0  0  0  0  0  0  0  0  0  0  0  0
    3.0297   -8.3292    5.4653 O   0  0  0  0  0  0  0  0  0  0  0  0
    2.7643   -9.8346    3.5956 C   0  0  0  0  0  0  0  0  0  0  0  0
    3.0627  -10.8408    4.2203 O   0  0  0  0  0  0  0  0  0  0  0  0
    2.4955   -9.7730    2.1047 C   0  0  1  0  0  0  0  0  0  0  0  0
    1.4905   -8.8223    1.7155 O   0  0  0  0  0  0  0  0  0  0  0  0
    1.5411   -7.6028    2.3239 C   0  0  0  0  0  0  0  0  0  0  0  0
    0.9266   -6.5310    1.6834 C   0  0  0  0  0  0  0  0  0  0  0  0
    0.3270   -6.7466    0.5009 F   0  0  0  0  0  0  0  0  0  0  0  0
    3.7664   -9.5172    1.3436 C   0  0  1  0  0  0  0  0  0  0  0  0
    4.4707   -8.2937    1.6466 O   0  0  0  0  0  0  0  0  0  0  0  0
    4.5990  -10.6604    1.1713 O   0  0  0  0  0  0  0  0  0  0  0  0
    4.0298  -10.1146   -0.0250 C   0  0  3  0  0  0  0  0  0  0  0  0
    4.9585   -9.3812   -0.8420 O   0  0  0  0  0  0  0  0  0  0  0  0
    3.1879    0.9796    2.9940 C   0  0  0  0  0  0  0  0  0  0  0  0
    2.2995    0.7988    2.1756 O   0  0  0  0  0  0  0  0  0  0  0  0
    4.1928    2.0945    2.8982 C   0  0  0  0  0  0  0  0  0  0  0  0
    3.8147    3.2320    2.6844 O   0  0  0  0  0  0  0  0  0  0  0  0
    5.6309    1.7744    3.2596 C   0  0  0  0  0  0  0  0  0  0  0  0
    6.5471    2.5322    2.9973 O   0  0  0  0  0  0  0  0  0  0  0  0
  1  2  1  0  0  0  0
  2  3  2  0  0  0  0
  3  4  1  0  0  0  0
  3 53  1  0  0  0  0
  4  5  1  0  0  0  0
  5  6  1  6  0  0  0
  5 49  1  0  0  0  0
  6  7  1  0  0  0  0
  7  8  2  0  0  0  0
  7 12  1  0  0  0  0
  8  9  1  0  0  0  0
  8 26  1  0  0  0  0
  9 10  1  0  0  0  0
 10 11  2  0  0  0  0
 10 21  1  0  0  0  0
 11 12  1  0  0  0  0
 11 13  1  0  0  0  0
 13 14  1  0  0  0  0
 13 19  1  0  0  0  0
 14 15  1  0  0  0  0
 15 16  2  0  0  0  0
 15 17  1  0  0  0  0
 17 18  1  0  0  0  0
 18 19  1  0  0  0  0
 18 25  1  0  0  0  0
 19 20  2  0  0  0  0
 20 21  1  0  0  0  0
 20 22  1  0  0  0  0
 22 23  1  0  0  0  0
 22 24  1  0  0  0  0
 23 24  1  0  0  0  0
 26 27  2  0  0  0  0
 26 32  1  0  0  0  0
 27 28  1  0  0  0  0
 28 29  1  0  0  0  0
 28 30  2  0  0  0  0
 30 31  1  0  0  0  0
 31 32  2  0  0  0  0
 31 42  1  0  0  0  0
 32 33  1  0  0  0  0
 33 34  2  0  0  0  0
 34 35  1  0  0  0  0
 34 41  1  0  0  0  0
 35 36  2  0  0  0  0
 35 37  1  0  0  0  0
 37 38  2  0  0  0  0
 39 37  1  1  0  0  0
 39 40  1  0  0  0  0
 39 44  1  0  0  0  0
 40 41  1  0  0  0  0
 41 42  2  0  0  0  0
 42 43  1  0  0  0  0
 44 45  1  1  0  0  0
 44 46  1  0  0  0  0
 44 47  1  0  0  0  0
 46 47  1  0  0  0  0
 47 48  1  0  0  0  0
 49 50  2  0  0  0  0
 49 51  1  0  0  0  0
 51 52  2  0  0  0  0
 51 53  1  0  0  0  0
 53 54  2  0  0  0  0
M  CHG  2  21   1  28   1
M  END
$$$$