
 OpenBabel11242002033D

 54 62  0  0  1  0  0  0  0  0999 V2000
    0.8287    6.0520    1.2031 O   0  0  0  0  0  0  0  0  0  0  0  0
    1.9677    6.4507    1.8531 C   0  0  0  0  0  0  0  0  0  0  0  0
    2.5653    5.6944    2.7804 C   0  0  0  0  0  0  0  0  0  0  0  0
    2.0237    4.4819    3.1837 O   0  0  0  0  0  0  0  0  0  0  0  0
    2.9744    3.4399    3.3870 C   0  0  2  0  0  0  0  0  0  0  0  0
    2.2675    2.2398    3.8090 O   0  0  0  0  0  0  0  0  0  0  0  0
    2.0185    2.0149    5.1557 C   0  0  0  0  0  0  0  0  0  0  0  0
    2.0114    0.7667    5.6849 C   0  0  0  0  0  0  0  0  0  0  0  0
    2.0054    0.6060    7.0891 O   0  0  0  0  0  0  0  0  0  0  0  0
    2.4744    1.6643    7.8832 C   0  0  0  0  0  0  0  0  0  0  0  0
    2.3594    2.9320    7.4400 C   0  0  0  0  0  0  0  0  0  0  0  0
    1.7272    3.1716    6.0936 C   0  0  0  0  0  0  0  0  0  0  0  0
    2.9003    4.1116    8.2068 C   0  0  3  0  0  0  0  0  0  0  0  0
    1.8573    5.0446    8.3715 O   0  0  0  0  0  0  0  0  0  0  0  0
    2.0650    5.9878    9.3142 C   0  0  0  0  0  0  0  0  0  0  0  0
    2.9645    5.9498   10.2250 O   0  3  0  0  0  0  0  0  0  0  0  0
    3.8278    4.9286   10.2757 C   0  0  3  0  0  0  0  0  0  0  0  0
    3.4159    3.7078    9.5321 C   0  0  0  0  0  0  0  0  0  0  0  0
    3.5060    2.4106    9.9262 C   0  0  0  0  0  0  0  0  0  0  0  0
    3.0535    1.3745    9.1029 O   0  3  0  0  0  0  0  0  0  0  0  0
    4.0442    1.9902   11.2420 C   0  0  0  0  0  0  0  0  0  0  0  0
    3.1949    1.9852   12.3941 O   0  0  0  0  0  0  0  0  0  0  0  0
    3.6487    0.7405   11.8230 O   0  0  0  0  0  0  0  0  0  0  0  0
    5.0146    5.3765    9.6763 O   0  0  0  0  0  0  0  0  0  0  0  0
    1.2225    7.0201    9.3360 F   0  0  0  0  0  0  0  0  0  0  0  0
    1.9243   -0.5115    4.8926 C   0  0  0  0  0  0  0  0  0  0  0  0
    1.2364   -0.4981    3.6743 C   0  0  0  0  0  0  0  0  0  0  0  0
    0.9780   -1.6264    3.0040 N   0  3  0  0  0  0  0  0  0  0  0  0
    0.2975   -1.5565    1.8427 F   0  0  0  0  0  0  0  0  0  0  0  0
    1.3170   -2.8148    3.4588 N   0  0  0  0  0  0  0  0  0  0  0  0
    1.9685   -2.9227    4.6175 C   0  0  0  0  0  0  0  0  0  0  0  0
    2.3333   -1.7866    5.3690 C   0  0  0  0  0  0  0  0  0  0  0  0
    3.0463   -2.0101    6.5674 C   0  0  0  0  0  0  0  0  0  0  0  0
    3.2580   -3.2982    7.0766 C   0  0  0  0  0  0  0  0  0  0  0  0
    3.7256   -3.4436    8.4566 C   0  0  0  0  0  0  0  0  0  0  0  0
    3.8529   -2.4407    9.1513 O   0  0  0  0  0  0  0  0  0  0  0  0
    3.8698   -4.8633    8.9727 C   0  0  0  0  0  0  0  0  0  0  0  0
    3.9052   -5.0695   10.1747 O   0  0  0  0  0  0  0  0  0  0  0  0
    3.9571   -5.9201    7.8854 C   0  0  1  0  0  0  0  0  0  0  0  0
    3.0859   -5.6942    6.7621 O   0  0  0  0  0  0  0  0  0  0  0  0
    2.9010   -4.4090    6.3455 C   0  0  0  0  0  0  0  0  0  0  0  0
    2.2692   -4.1976    5.1170 C   0  0  0  0  0  0  0  0  0  0  0  0
    1.8868   -5.2662    4.3999 F   0  0  0  0  0  0  0  0  0  0  0  0
    5.3681   -6.0777    7.4213 C   0  0  1  0  0  0  0  0  0  0  0  0
    6.0107   -4.8822    6.9006 O   0  0  0  0  0  0  0  0  0  0  0  0
    6.1805   -6.9103    8.2348 O   0  0  0  0  0  0  0  0  0  0  0  0
    5.9536   -7.3484    6.9803 C   0  0  0  0  0  0  0  0  0  0  0  0
    6.7348   -7.5218    6.0666 O   0  0  0  0  0  0  0  0  0  0  0  0
    4.1452    3.8128    4.3110 C   0  0  0  0  0  0  0  0  0  0  0  0
    4.7929    3.0269    4.9930 O   0  0  0  0  0  0  0  0  0  0  0  0
    4.2636    5.2958    4.5363 C   0  0  0  0  0  0  0  0  0  0  0  0
    4.5130    5.6920    5.6658 O   0  0  0  0  0  0  0  0  0  0  0  0
    3.7696    6.2335    3.4654 C   0  0  0  0  0  0  0  0  0  0  0  0
    4.3020    7.3043    3.2631 O   0  0  0  0  0  0  0  0  0  0  0  0
  1  2  1  0  0  0  0
  2  3  2  0  0  0  0
  3  4  1  0  0  0  0
  3 53  1  0  0  0  0
  4  5  1  0  0  0  0
  5  6  1  1  0  0  0
  5 49  1  0  0  0  0
  6  7  1  0  0  0  0
  7  8  2  0  0  0  0
  7 12  1  0  0  0  0
  8  9  1  0  0  0  0
  8 26  1  0  0  0  0
  9 10  1  0  0  0  0
 10 11  2  0  0  0  0
 10 20  1  0  0  0  0
 11 12  1  0  0  0  0
 11 13  1  0  0  0  0
 13 14  1  0  0  0  0
 13 18  1  0  0  0  0
 14 15  1  0  0  0  0
 15 16  2  0  0  0  0
 15 25  1  0  0  0  0
 16 17  1  0  0  0  0
 17 18  1  0  0  0  0
 17 24  1  0  0  0  0
 18 19  2  0  0  0  0
 19 20  1  0  0  0  0
 19 21  1  0  0  0  0
 21 22  1  0  0  0  0
 21 23  1  0  0  0  0
 22 23  1  0  0  0  0
 26 27  2  0  0  0  0
 26 32  1  0  0  0  0
 27 28  1  0  0  0  0
 28 29  1  0  0  0  0
 28 30  2  0  0  0  0
 30 31  1  0  0  0  0
 31 32  2  0  0  0  0
 31 42  1  0  0  0  0
 32 33  1  0  0  0  0
 33 34  2  0  0  0  0
 34 35  1  0  0  0  0
 34 41  1  0  0  0  0
 35 36  2  0  0  0  0
 35 37  1  0  0  0  0
 37 38  2  0  0  0  0
 39 37  1  1  0  0  0
 39 40  1  0  0  0  0
 39 44  1  0  0  0  0
 40 41  1  0  0  0  0
 41 42  2  0  0  0  0
 42 43  1  0  0  0  0
 44 45  1  6  0  0  0
 44 46  1  0  0  0  0
 44 47  1  0  0  0  0
 46 47  1  0  0  0  0
 47 48  2  0  0  0  0
 49 50  2  0  0  0  0
 49 51  1  0  0  0  0
 51 52  2  0  0  0  0
 51 53  1  0  0  0  0
 53 54  2  0  0  0  0
M  CHG  3  16   1  20   1  28   1
M  END
$$$$