
 OpenBabel10202008533D

 55 63  0  0  1  0  0  0  0  0999 V2000
    7.0551   -6.6823   -4.2189 O   0  0  0  0  0  0  0  0  0  0  0  0
    7.8589   -6.6576   -5.3305 C   0  0  0  0  0  0  0  0  0  0  0  0
    7.9488   -5.5861   -6.1278 C   0  0  0  0  0  0  0  0  0  0  0  0
    7.2007   -4.4612   -5.8387 O   0  0  0  0  0  0  0  0  0  0  0  0
    7.3795   -3.2778   -6.6032 C   0  0  2  0  0  0  0  0  0  0  0  0
    6.3406   -2.3072   -6.3864 O   0  0  0  0  0  0  0  0  0  0  0  0
    5.0119   -2.6330   -6.6221 C   0  0  0  0  0  0  0  0  0  0  0  0
    4.0870   -1.6946   -6.9485 C   0  0  0  0  0  0  0  0  0  0  0  0
    2.7397   -2.0304   -7.1866 O   0  0  0  0  0  0  0  0  0  0  0  0
    2.3202   -3.3516   -7.0644 C   0  0  0  0  0  0  0  0  0  0  0  0
    3.1747   -4.3204   -6.7172 C   0  0  0  0  0  0  0  0  0  0  0  0
    4.6046   -4.0716   -6.4566 C   0  0  0  0  0  0  0  0  0  0  0  0
    2.6896   -5.7197   -6.6102 C   0  0  0  0  0  0  0  0  0  0  0  0
    3.5032   -6.6779   -6.3081 N   0  0  0  0  0  0  0  0  0  0  0  0
    3.0240   -7.9679   -6.2213 C   0  0  0  0  0  0  0  0  0  0  0  0
    3.8210   -8.8601   -5.9586 O   0  0  0  0  0  0  0  0  0  0  0  0
    1.6972   -8.2986   -6.4183 N   0  0  0  0  0  0  0  0  0  0  0  0
    0.8658   -7.3604   -6.7188 C   0  0  0  0  0  0  0  0  0  0  0  0
    1.2581   -5.9578   -6.8681 C   0  0  0  0  0  0  0  0  0  0  0  0
    0.4617   -4.9233   -7.2079 C   0  0  0  0  0  0  0  0  0  0  0  0
    1.0017   -3.6445   -7.3150 N   0  0  0  0  0  0  0  0  0  0  0  0
   -0.9872   -5.0446   -7.4816 C   0  0  0  0  0  0  0  0  0  0  0  0
   -1.9587   -4.9203   -6.4324 O   0  0  0  0  0  0  0  0  0  0  0  0
   -1.8653   -3.9068   -7.4526 O   0  0  0  0  0  0  0  0  0  0  0  0
    4.3754   -0.2417   -7.1311 C   0  0  0  0  0  0  0  0  0  0  0  0
    3.6126    0.4034   -8.0347 N   0  0  0  0  0  0  0  0  0  0  0  0
    3.8850    1.6990   -8.2236 C   0  0  0  0  0  0  0  0  0  0  0  0
    4.8334    2.4139   -7.5976 N   0  0  0  0  0  0  0  0  0  0  0  0
    5.5891    1.7749   -6.6874 C   0  0  0  0  0  0  0  0  0  0  0  0
    5.3575    0.4301   -6.4142 C   0  0  0  0  0  0  0  0  0  0  0  0
    6.7194    2.5562   -6.0764 C   0  0  0  0  0  0  0  0  0  0  0  0
    7.8729    1.8268   -5.6650 C   0  0  0  0  0  0  0  0  0  0  0  0
    9.0327    2.4365   -5.1878 C   0  0  0  0  0  0  0  0  0  0  0  0
    9.0926    3.8118   -5.1206 C   0  0  0  0  0  0  0  0  0  0  0  0
    7.9873    4.5681   -5.5058 C   0  0  0  0  0  0  0  0  0  0  0  0
    6.7780    3.9873   -5.9619 C   0  0  0  0  0  0  0  0  0  0  0  0
    5.6453    4.9239   -6.4199 C   0  0  3  0  0  0  0  0  0  0  0  0
    4.3164    4.8554   -5.6743 C   0  0  0  0  0  0  0  0  0  0  0  0
    4.2502    5.7433   -4.4736 C   0  0  0  0  0  0  0  0  0  0  0  0
    3.6132    5.4579   -3.4670 O   0  0  0  0  0  0  0  0  0  0  0  0
    4.8558    7.1168   -4.6091 C   0  0  0  0  0  0  0  0  0  0  0  0
    4.4706    8.0315   -3.8910 O   0  0  0  0  0  0  0  0  0  0  0  0
    5.9776    7.2295   -5.6212 C   0  0  1  0  0  0  0  0  0  0  0  0
    6.0428    6.2813   -6.6724 O   0  0  0  0  0  0  0  0  0  0  0  0
    5.9749    8.6024   -6.2353 C   0  0  2  0  0  0  0  0  0  0  0  0
    6.5252    9.6584   -5.4179 O   0  0  0  0  0  0  0  0  0  0  0  0
    4.7552    8.9174   -6.9246 O   0  0  0  0  0  0  0  0  0  0  0  0
    5.8728    8.8743   -7.6591 C   0  0  0  0  0  0  0  0  0  0  0  0
    6.3511    9.7249   -8.3927 O   0  0  0  0  0  0  0  0  0  0  0  0
    7.6899   -3.5150   -8.0731 C   0  0  0  0  0  0  0  0  0  0  0  0
    7.1512   -3.0076   -9.0423 O   0  0  0  0  0  0  0  0  0  0  0  0
    8.8176   -4.4867   -8.2239 C   0  0  0  0  0  0  0  0  0  0  0  0
    9.7335   -4.2445   -8.9924 O   0  0  0  0  0  0  0  0  0  0  0  0
    8.8421   -5.6927   -7.3173 C   0  0  0  0  0  0  0  0  0  0  0  0
    9.5493   -6.6553   -7.5660 O   0  0  0  0  0  0  0  0  0  0  0  0
  1  2  1  0  0  0  0
  2  3  2  0  0  0  0
  3  4  1  0  0  0  0
  3 54  1  0  0  0  0
  4  5  1  0  0  0  0
  5  6  1  6  0  0  0
  5 50  1  0  0  0  0
  6  7  1  0  0  0  0
  7  8  2  0  0  0  0
  7 12  1  0  0  0  0
  8  9  1  0  0  0  0
  8 25  1  0  0  0  0
  9 10  1  0  0  0  0
 10 11  2  0  0  0  0
 10 21  1  0  0  0  0
 11 12  1  0  0  0  0
 11 13  1  0  0  0  0
 13 14  2  0  0  0  0
 13 19  1  0  0  0  0
 14 15  1  0  0  0  0
 15 16  2  0  0  0  0
 15 17  1  0  0  0  0
 17 18  2  0  0  0  0
 18 19  1  0  0  0  0
 19 20  2  0  0  0  0
 20 21  1  0  0  0  0
 20 22  1  0  0  0  0
 22 23  1  0  0  0  0
 22 24  1  0  0  0  0
 23 24  1  0  0  0  0
 25 26  2  0  0  0  0
 25 30  1  0  0  0  0
 26 27  1  0  0  0  0
 27 28  2  0  0  0  0
 28 29  1  0  0  0  0
 29 30  2  0  0  0  0
 29 31  1  0  0  0  0
 31 32  2  0  0  0  0
 31 36  1  0  0  0  0
 32 33  1  0  0  0  0
 33 34  2  0  0  0  0
 34 35  1  0  0  0  0
 35 36  2  0  0  0  0
 36 37  1  0  0  0  0
 37 38  1  0  0  0  0
 37 44  1  0  0  0  0
 38 39  1  0  0  0  0
 39 40  2  0  0  0  0
 39 41  1  0  0  0  0
 41 42  2  0  0  0  0
 43 41  1  6  0  0  0
 43 44  1  0  0  0  0
 45 47  1  0  0  0  0
 45 48  1  0  0  0  0
 45 46  1  1  0  0  0
 45 43  1  0  0  0  0
 47 48  1  0  0  0  0
 48 49  2  0  0  0  0
 50 51  2  0  0  0  0
 50 52  1  0  0  0  0
 52 53  2  0  0  0  0
 52 54  1  0  0  0  0
 54 55  2  0  0  0  0
M  END
$$$$