
 OpenBabel11222020333D

 53 61  0  0  1  0  0  0  0  0999 V2000
   -0.1451   -1.6688    6.3951 O   0  0  0  0  0  0  0  0  0  0  0  0
   -0.1675   -1.9603    5.0552 C   0  0  0  0  0  0  0  0  0  0  0  0
    0.0347   -1.0304    4.1148 C   0  0  0  0  0  0  0  0  0  0  0  0
    0.2577    0.2949    4.4537 O   0  0  0  0  0  0  0  0  0  0  0  0
    1.3047    0.8718    3.6762 C   0  0  2  0  0  0  0  0  0  0  0  0
    1.7193    2.1515    4.1856 O   0  0  0  0  0  0  0  0  0  0  0  0
    2.2494    2.2113    5.4705 C   0  0  0  0  0  0  0  0  0  0  0  0
    2.6562    3.3933    5.9818 C   0  0  0  0  0  0  0  0  0  0  0  0
    3.2161    3.5356    7.2472 O   0  0  0  0  0  0  0  0  0  0  0  0
    3.4806    2.3970    8.0003 C   0  0  0  0  0  0  0  0  0  0  0  0
    3.1297    1.1773    7.5663 C   0  0  0  0  0  0  0  0  0  0  0  0
    2.3929    0.9496    6.2941 C   0  0  0  0  0  0  0  0  0  0  0  0
    3.5114   -0.0046    8.3871 C   0  0  0  0  0  0  0  0  0  0  0  0
    3.2296   -1.2042    7.9868 N   0  0  0  0  0  0  0  0  0  0  0  0
    3.6255   -2.2287    8.7964 C   0  0  0  0  0  0  0  0  0  0  0  0
    3.3144   -3.3943    8.3661 N   0  0  0  0  0  0  0  0  0  0  0  0
    4.3018   -2.1486    9.9764 N   0  0  0  0  0  0  0  0  0  0  0  0
    4.6028   -0.9660   10.3940 C   0  0  0  0  0  0  0  0  0  0  0  0
    4.2397    0.2506    9.6553 C   0  0  0  0  0  0  0  0  0  0  0  0
    4.5162    1.5179   10.0221 C   0  0  0  0  0  0  0  0  0  0  0  0
    4.1309    2.5677    9.1948 N   0  0  0  0  0  0  0  0  0  0  0  0
    5.2367    1.8967   11.2607 C   0  0  0  0  0  0  0  0  0  0  0  0
    6.6665    2.0193   11.2842 O   0  0  0  0  0  0  0  0  0  0  0  0
    5.8420    3.1932   11.4163 O   0  0  0  0  0  0  0  0  0  0  0  0
    2.6109    4.6462    5.2119 C   0  0  0  0  0  0  0  0  0  0  0  0
    3.7336    4.9747    4.4629 C   0  0  0  0  0  0  0  0  0  0  0  0
    3.7593    6.0911    3.7310 N   0  3  0  0  0  0  0  0  0  0  0  0
    4.8690    6.3873    3.0284 F   0  0  0  0  0  0  0  0  0  0  0  0
    2.7403    6.9274    3.6734 N   0  0  0  0  0  0  0  0  0  0  0  0
    1.6251    6.6595    4.3628 C   0  0  0  0  0  0  0  0  0  0  0  0
    1.5057    5.5155    5.1733 C   0  0  0  0  0  0  0  0  0  0  0  0
    0.3032    5.3066    5.8900 C   0  0  0  0  0  0  0  0  0  0  0  0
   -0.7651    6.2058    5.7741 C   0  0  0  0  0  0  0  0  0  0  0  0
   -2.0148    5.9727    6.5027 C   0  0  0  0  0  0  0  0  0  0  0  0
   -2.1472    5.0256    7.2584 O   0  0  0  0  0  0  0  0  0  0  0  0
   -3.1255    6.9678    6.2681 C   0  0  0  0  0  0  0  0  0  0  0  0
   -4.0323    7.1033    7.0758 O   0  0  0  0  0  0  0  0  0  0  0  0
   -3.0211    7.7185    4.9636 C   0  0  1  0  0  0  0  0  0  0  0  0
   -1.6851    8.1884    4.7040 O   0  0  0  0  0  0  0  0  0  0  0  0
   -0.6620    7.3144    4.9504 C   0  0  0  0  0  0  0  0  0  0  0  0
    0.5421    7.5343    4.2779 C   0  0  0  0  0  0  0  0  0  0  0  0
    0.6526    8.6160    3.4886 F   0  0  0  0  0  0  0  0  0  0  0  0
   -3.6389    6.9438    3.8025 C   0  0  1  0  0  0  0  0  0  0  0  0
   -5.0703    6.5634    3.8336 N   0  0  0  0  0  0  0  0  0  0  0  0
   -3.2268    7.4114    2.5061 O   0  0  0  0  0  0  0  0  0  0  0  0
   -2.8338    6.1810    2.8459 C   0  0  0  0  0  0  0  0  0  0  0  0
   -1.7258    5.6772    2.9276 O   0  0  0  0  0  0  0  0  0  0  0  0
    0.7956    1.0287    2.2529 C   0  0  0  0  0  0  0  0  0  0  0  0
    0.9434    2.0204    1.5532 O   0  0  0  0  0  0  0  0  0  0  0  0
    0.1290   -0.2344    1.7408 C   0  0  0  0  0  0  0  0  0  0  0  0
   -0.3036   -0.2937    0.6028 O   0  0  0  0  0  0  0  0  0  0  0  0
    0.0265   -1.4264    2.6790 C   0  0  0  0  0  0  0  0  0  0  0  0
    0.0290   -2.5756    2.2778 O   0  0  0  0  0  0  0  0  0  0  0  0
  1  2  1  0  0  0  0
  2  3  2  0  0  0  0
  3  4  1  0  0  0  0
  3 52  1  0  0  0  0
  4  5  1  0  0  0  0
  5  6  1  1  0  0  0
  5 48  1  0  0  0  0
  6  7  1  0  0  0  0
  7  8  2  0  0  0  0
  7 12  1  0  0  0  0
  8  9  1  0  0  0  0
  8 25  1  0  0  0  0
  9 10  1  0  0  0  0
 10 11  2  0  0  0  0
 10 21  1  0  0  0  0
 11 12  1  0  0  0  0
 11 13  1  0  0  0  0
 13 14  2  0  0  0  0
 13 19  1  0  0  0  0
 14 15  1  0  0  0  0
 15 16  2  0  0  0  0
 15 17  1  0  0  0  0
 17 18  2  0  0  0  0
 18 19  1  0  0  0  0
 19 20  2  0  0  0  0
 20 21  1  0  0  0  0
 20 22  1  0  0  0  0
 22 23  1  0  0  0  0
 22 24  1  0  0  0  0
 23 24  1  0  0  0  0
 25 26  2  0  0  0  0
 25 31  1  0  0  0  0
 26 27  1  0  0  0  0
 27 28  1  0  0  0  0
 27 29  2  0  0  0  0
 29 30  1  0  0  0  0
 30 31  2  0  0  0  0
 30 41  1  0  0  0  0
 31 32  1  0  0  0  0
 32 33  2  0  0  0  0
 33 34  1  0  0  0  0
 33 40  1  0  0  0  0
 34 35  2  0  0  0  0
 34 36  1  0  0  0  0
 36 37  2  0  0  0  0
 38 36  1  1  0  0  0
 38 39  1  0  0  0  0
 38 43  1  0  0  0  0
 39 40  1  0  0  0  0
 40 41  2  0  0  0  0
 41 42  1  0  0  0  0
 43 44  1  1  0  0  0
 43 45  1  0  0  0  0
 43 46  1  0  0  0  0
 45 46  1  0  0  0  0
 46 47  2  0  0  0  0
 48 49  2  0  0  0  0
 48 50  1  0  0  0  0
 50 51  2  0  0  0  0
 50 52  1  0  0  0  0
 52 53  2  0  0  0  0
M  CHG  1  27   1
M  END
$$$$