
 OpenBabel11262001063D

 54 62  0  0  1  0  0  0  0  0999 V2000
    6.3360    3.5563    3.0316 O   0  0  0  0  0  0  0  0  0  0  0  0
    5.5233    3.6041    1.9261 C   0  0  0  0  0  0  0  0  0  0  0  0
    4.2852    3.0967    1.9066 C   0  0  0  0  0  0  0  0  0  0  0  0
    3.7668    2.4640    3.0221 O   0  0  0  0  0  0  0  0  0  0  0  0
    2.3555    2.5860    3.1778 C   0  0  2  0  0  0  0  0  0  0  0  0
    1.9006    1.6358    4.1810 O   0  0  0  0  0  0  0  0  0  0  0  0
    2.5059    1.6495    5.4192 C   0  0  0  0  0  0  0  0  0  0  0  0
    2.7744    0.4982    6.0718 C   0  0  0  0  0  0  0  0  0  0  0  0
    3.2631    0.5319    7.3895 O   0  0  0  0  0  0  0  0  0  0  0  0
    3.4897    1.7250    8.0701 C   0  0  0  0  0  0  0  0  0  0  0  0
    3.2477    2.9082    7.4749 C   0  0  0  0  0  0  0  0  0  0  0  0
    2.7603    3.0013    6.0540 C   0  0  0  0  0  0  0  0  0  0  0  0
    3.4640    4.2162    8.1997 C   0  0  3  0  0  0  0  0  0  0  0  0
    2.2468    4.9361    8.1523 O   0  0  0  0  0  0  0  0  0  0  0  0
    2.2097    6.0826    8.8657 C   0  0  0  0  0  0  0  0  0  0  0  0
    1.3276    6.9626    8.5918 N   0  0  0  0  0  0  0  0  0  0  0  0
    3.1011    6.2702    9.8590 O   0  0  0  0  0  0  0  0  0  0  0  0
    3.8262    5.2555   10.3581 C   0  0  0  0  0  0  0  0  0  0  0  0
    4.5464    5.3602   11.3407 O   0  0  0  0  0  0  0  0  0  0  0  0
    3.7894    3.9938    9.6190 C   0  0  0  0  0  0  0  0  0  0  0  0
    4.0324    2.7810   10.1660 C   0  0  0  0  0  0  0  0  0  0  0  0
    3.9633    1.6414    9.3703 O   0  3  0  0  0  0  0  0  0  0  0  0
    4.2995    2.5246   11.6055 C   0  0  0  0  0  0  0  0  0  0  0  0
    3.2320    2.1125   12.4714 O   0  0  0  0  0  0  0  0  0  0  0  0
    4.2607    1.1742   12.1090 O   0  0  0  0  0  0  0  0  0  0  0  0
    2.6316   -0.8981    5.4824 C   0  0  0  0  0  0  0  0  0  0  0  0
    1.8296   -1.2062    4.3703 C   0  0  0  0  0  0  0  0  0  0  0  0
    1.7784   -2.4577    3.8902 N   0  3  0  0  0  0  0  0  0  0  0  0
    1.0015   -2.7161    2.8165 F   0  0  0  0  0  0  0  0  0  0  0  0
    2.4499   -3.4615    4.4391 N   0  0  0  0  0  0  0  0  0  0  0  0
    3.2061   -3.2135    5.5332 C   0  0  0  0  0  0  0  0  0  0  0  0
    3.3046   -1.9454    6.0555 N   0  3  0  0  0  0  0  0  0  0  0  0
    4.0143   -1.7130    7.1490 N   0  0  0  0  0  0  0  0  0  0  0  0
    4.6148   -2.6969    7.8195 C   0  0  0  0  0  0  0  0  0  0  0  0
    5.1173   -2.3052    9.1337 C   0  0  0  0  0  0  0  0  0  0  0  0
    4.9244   -1.1564    9.5293 O   0  0  0  0  0  0  0  0  0  0  0  0
    5.7119   -3.4373    9.9476 C   0  0  0  0  0  0  0  0  0  0  0  0
    5.7663   -3.3250   11.1610 O   0  0  0  0  0  0  0  0  0  0  0  0
    6.1586   -4.6440    9.1260 C   0  0  1  0  0  0  0  0  0  0  0  0
    5.2248   -5.0026    8.0729 O   0  0  0  0  0  0  0  0  0  0  0  0
    4.6251   -3.9877    7.3977 C   0  0  0  0  0  0  0  0  0  0  0  0
    3.9079   -4.2285    6.2303 C   0  0  0  0  0  0  0  0  0  0  0  0
    3.8324   -5.4813    5.7620 F   0  0  0  0  0  0  0  0  0  0  0  0
    7.5047   -4.3892    8.5352 C   0  0  1  0  0  0  0  0  0  0  0  0
    7.6094   -3.2166    7.6765 O   0  0  0  0  0  0  0  0  0  0  0  0
    8.6101   -4.6364    9.3799 O   0  0  0  0  0  0  0  0  0  0  0  0
    8.5102   -5.4372    8.2983 C   0  0  0  0  0  0  0  0  0  0  0  0
    9.2138   -5.5203    7.3112 O   0  0  0  0  0  0  0  0  0  0  0  0
    1.6170    2.1977    1.9023 C   0  0  3  0  0  0  0  0  0  0  0  0
    2.0047    3.0911    0.7498 C   0  0  3  0  0  0  0  0  0  0  0  0
    3.4998    3.2278    0.6340 C   0  0  0  0  0  0  0  0  0  0  0  0
    4.0558    3.5173   -0.4213 O   0  0  0  0  0  0  0  0  0  0  0  0
    1.4186    2.5972   -0.3763 F   0  0  0  0  0  0  0  0  0  0  0  0
    1.9378    0.8858    1.6390 F   0  0  0  0  0  0  0  0  0  0  0  0
  1  2  1  0  0  0  0
  2  3  2  0  0  0  0
  3  4  1  0  0  0  0
  3 51  1  0  0  0  0
  4  5  1  0  0  0  0
  5  6  1  1  0  0  0
  5 49  1  0  0  0  0
  6  7  1  0  0  0  0
  7  8  2  0  0  0  0
  7 12  1  0  0  0  0
  8  9  1  0  0  0  0
  8 26  1  0  0  0  0
  9 10  1  0  0  0  0
 10 11  2  0  0  0  0
 10 22  1  0  0  0  0
 11 12  1  0  0  0  0
 11 13  1  0  0  0  0
 13 14  1  0  0  0  0
 13 20  1  0  0  0  0
 14 15  1  0  0  0  0
 15 16  2  0  0  0  0
 15 17  1  0  0  0  0
 17 18  1  0  0  0  0
 18 19  2  0  0  0  0
 18 20  1  0  0  0  0
 20 21  2  0  0  0  0
 21 22  1  0  0  0  0
 21 23  1  0  0  0  0
 23 24  1  0  0  0  0
 23 25  1  0  0  0  0
 24 25  1  0  0  0  0
 26 27  2  0  0  0  0
 26 32  1  0  0  0  0
 27 28  1  0  0  0  0
 28 29  1  0  0  0  0
 28 30  2  0  0  0  0
 30 31  1  0  0  0  0
 31 32  2  0  0  0  0
 31 42  1  0  0  0  0
 32 33  1  0  0  0  0
 33 34  2  0  0  0  0
 34 35  1  0  0  0  0
 34 41  1  0  0  0  0
 35 36  2  0  0  0  0
 35 37  1  0  0  0  0
 37 38  2  0  0  0  0
 39 37  1  6  0  0  0
 39 40  1  0  0  0  0
 39 44  1  0  0  0  0
 40 41  1  0  0  0  0
 41 42  2  0  0  0  0
 42 43  1  0  0  0  0
 44 45  1  6  0  0  0
 44 46  1  0  0  0  0
 44 47  1  0  0  0  0
 46 47  1  0  0  0  0
 47 48  2  0  0  0  0
 49 50  1  0  0  0  0
 49 54  1  0  0  0  0
 50 51  1  0  0  0  0
 50 53  1  0  0  0  0
 51 52  2  0  0  0  0
M  CHG  3  22   1  28   1  32   1
M  END
$$$$