
 OpenBabel11242001443D

 54 63  0  0  1  0  0  0  0  0999 V2000
   11.0937    7.2455  -21.6485 O   0  0  0  0  0  0  0  0  0  0  0  0
   10.5555    8.2487  -21.1937 C   0  0  0  0  0  0  0  0  0  0  0  0
    9.5440    8.2084  -20.1121 C   0  0  0  0  0  0  0  0  0  0  0  0
    8.9089    9.3641  -19.8370 N   0  0  0  0  0  0  0  0  0  0  0  0
    7.9755    9.3054  -18.8676 C   0  0  0  0  0  0  0  0  0  0  0  0
    7.6820    8.1533  -18.1687 C   0  0  0  0  0  0  0  0  0  0  0  0
    8.4159    7.0301  -18.5247 C   0  0  0  0  0  0  0  0  0  0  0  0
    9.3371    7.0266  -19.5006 N   0  0  0  0  0  0  0  0  0  0  0  0
    8.2033    5.7597  -17.8170 C   0  0  0  0  0  0  0  0  0  0  0  0
    7.4526    5.7748  -16.7038 C   0  0  0  0  0  0  0  0  0  0  0  0
    6.8683    6.9275  -16.2356 N   0  0  0  0  0  0  0  0  0  0  0  0
    6.6066    8.0686  -17.1211 C   0  0  3  0  0  0  0  0  0  0  0  0
    5.2614    7.8955  -17.7728 C   0  0  0  0  0  0  0  0  0  0  0  0
    4.1519    7.9273  -16.8688 O   0  0  0  0  0  0  0  0  0  0  0  0
    4.4135    9.0418  -17.7542 O   0  0  0  0  0  0  0  0  0  0  0  0
    7.2092    4.6281  -15.9727 O   0  0  0  0  0  0  0  0  0  0  0  0
    7.6707    3.4122  -16.4479 C   0  0  0  0  0  0  0  0  0  0  0  0
    8.4188    3.2760  -17.5613 C   0  0  0  0  0  0  0  0  0  0  0  0
    8.8146    4.5033  -18.3582 C   0  0  0  0  0  0  0  0  0  0  0  0
    8.7812    2.0079  -17.9804 O   0  0  0  0  0  0  0  0  0  0  0  0
    9.5727    1.8304  -19.1653 C   0  0  1  0  0  0  0  0  0  0  0  0
   10.9514    1.8296  -18.8078 O   0  0  0  0  0  0  0  0  0  0  0  0
   11.8185    1.5568  -19.8551 C   0  0  0  0  0  0  0  0  0  0  0  0
   13.0990    1.9347  -19.7715 C   0  0  0  0  0  0  0  0  0  0  0  0
   13.6375    2.5976  -18.6982 O   0  0  0  0  0  0  0  0  0  0  0  0
   11.3923    0.7903  -21.0642 C   0  0  0  0  0  0  0  0  0  0  0  0
   12.0297    0.7281  -22.0999 O   0  0  0  0  0  0  0  0  0  0  0  0
   10.0563    0.0907  -20.9062 C   0  0  0  0  0  0  0  0  0  0  0  0
    9.7017   -0.7831  -21.6788 O   0  0  0  0  0  0  0  0  0  0  0  0
    9.1661    0.4940  -19.7601 C   0  0  0  0  0  0  0  0  0  0  0  0
    8.2319   -0.2009  -19.3841 O   0  0  0  0  0  0  0  0  0  0  0  0
    7.2391    2.2832  -15.6129 C   0  0  0  0  0  0  0  0  0  0  0  0
    8.1377    1.7607  -14.6937 C   0  0  0  0  0  0  0  0  0  0  0  0
    7.7528    0.8062  -13.8422 N   0  3  0  0  0  0  0  0  0  0  0  0
    8.6402    0.3317  -12.9473 F   0  0  0  0  0  0  0  0  0  0  0  0
    6.5199    0.3284  -13.8171 N   0  0  0  0  0  0  0  0  0  0  0  0
    5.6104    0.7911  -14.6853 C   0  0  0  0  0  0  0  0  0  0  0  0
    5.9288    1.7736  -15.6365 C   0  0  0  0  0  0  0  0  0  0  0  0
    4.9279    2.2121  -16.5359 C   0  0  0  0  0  0  0  0  0  0  0  0
    3.6226    1.7153  -16.4552 C   0  0  0  0  0  0  0  0  0  0  0  0
    3.2924    0.7715  -15.5019 C   0  0  0  0  0  0  0  0  0  0  0  0
    4.2960    0.3173  -14.6406 C   0  0  0  0  0  0  0  0  0  0  0  0
    3.9790   -0.5946  -13.7070 F   0  0  0  0  0  0  0  0  0  0  0  0
    2.0349    0.2608  -15.3312 O   0  0  0  0  0  0  0  0  0  0  0  0
    0.9842    0.7147  -16.2217 C   0  0  1  0  0  0  0  0  0  0  0  0
    1.1633    2.0026  -16.9066 C   0  0  0  0  0  0  0  0  0  0  0  0
    0.2890    2.8424  -17.0379 O   0  0  0  0  0  0  0  0  0  0  0  0
    2.5828    2.2371  -17.3429 C   0  0  0  0  0  0  0  0  0  0  0  0
    2.8595    2.8750  -18.3441 O   0  0  0  0  0  0  0  0  0  0  0  0
    0.3066   -0.2751  -16.9527 O   0  0  0  0  0  0  0  0  0  0  0  0
   -0.4326    0.3705  -15.8658 C   0  0  1  0  0  0  0  0  0  0  0  0
   -0.3934   -0.2771  -14.5293 O   0  0  0  0  0  0  0  0  0  0  0  0
   -1.3565   -0.6032  -15.3603 C   0  0  0  0  0  0  0  0  0  0  0  0
   -2.5618   -0.6331  -15.2412 O   0  0  0  0  0  0  0  0  0  0  0  0
  1  2  2  0  0  0  0
  2  3  1  0  0  0  0
  3  4  2  0  0  0  0
  3  8  1  0  0  0  0
  4  5  1  0  0  0  0
  5  6  2  0  0  0  0
  6  7  1  0  0  0  0
  6 12  1  0  0  0  0
  7  8  2  0  0  0  0
  7  9  1  0  0  0  0
  9 10  2  0  0  0  0
  9 19  1  0  0  0  0
 10 11  1  0  0  0  0
 10 16  1  0  0  0  0
 11 12  1  0  0  0  0
 12 13  1  0  0  0  0
 13 14  1  0  0  0  0
 13 15  1  0  0  0  0
 14 15  1  0  0  0  0
 16 17  1  0  0  0  0
 17 18  2  0  0  0  0
 17 32  1  0  0  0  0
 18 19  1  0  0  0  0
 18 20  1  0  0  0  0
 21 20  1  1  0  0  0
 21 22  1  0  0  0  0
 21 30  1  0  0  0  0
 22 23  1  0  0  0  0
 23 24  2  0  0  0  0
 23 26  1  0  0  0  0
 24 25  1  0  0  0  0
 26 27  2  0  0  0  0
 26 28  1  0  0  0  0
 28 29  2  0  0  0  0
 28 30  1  0  0  0  0
 30 31  2  0  0  0  0
 32 33  2  0  0  0  0
 32 38  1  0  0  0  0
 33 34  1  0  0  0  0
 34 35  1  0  0  0  0
 34 36  2  0  0  0  0
 36 37  1  0  0  0  0
 37 38  2  0  0  0  0
 37 42  1  0  0  0  0
 38 39  1  0  0  0  0
 39 40  2  0  0  0  0
 40 41  1  0  0  0  0
 40 48  1  0  0  0  0
 41 42  2  0  0  0  0
 41 44  1  0  0  0  0
 42 43  1  0  0  0  0
 45 44  1  1  0  0  0
 45 46  1  0  0  0  0
 45 50  1  0  0  0  0
 45 51  1  0  0  0  0
 46 47  2  0  0  0  0
 46 48  1  0  0  0  0
 48 49  2  0  0  0  0
 51 50  1  6  0  0  0
 51 52  1  0  0  0  0
 51 53  1  0  0  0  0
 52 53  1  0  0  0  0
 53 54  2  0  0  0  0
M  CHG  1  34   1
M  END
$$$$