
 OpenBabel11272002003D

 54 63  0  0  1  0  0  0  0  0999 V2000
   10.2761  -15.2730  -10.2627 F   0  0  0  0  0  0  0  0  0  0  0  0
   10.3297  -14.4860  -11.3544 C   0  0  0  0  0  0  0  0  0  0  0  0
   10.0712  -13.1793  -11.2848 C   0  0  0  0  0  0  0  0  0  0  0  0
    9.7178  -12.6014  -10.0802 O   0  0  0  0  0  0  0  0  0  0  0  0
    9.7989  -11.1785   -9.9976 C   0  0  2  0  0  0  0  0  0  0  0  0
    9.2769  -10.6951   -8.7517 O   0  0  0  0  0  0  0  0  0  0  0  0
    9.8019  -11.2464   -7.5884 C   0  0  0  0  0  0  0  0  0  0  0  0
    9.0559  -11.3542   -6.4667 C   0  0  0  0  0  0  0  0  0  0  0  0
    9.5940  -11.8046   -5.2602 O   0  0  0  0  0  0  0  0  0  0  0  0
   10.9399  -12.0820   -5.1629 C   0  0  0  0  0  0  0  0  0  0  0  0
   11.7681  -12.0257   -6.2180 C   0  0  0  0  0  0  0  0  0  0  0  0
   11.2698  -11.6264   -7.5718 C   0  0  0  0  0  0  0  0  0  0  0  0
   13.2212  -12.3988   -6.0554 C   0  0  3  0  0  0  0  0  0  0  0  0
   14.0196  -11.3405   -6.5543 O   0  0  0  0  0  0  0  0  0  0  0  0
   15.3651  -11.4962   -6.4622 C   0  0  0  0  0  0  0  0  0  0  0  0
   16.1185  -10.8722   -7.1966 O   0  0  0  0  0  0  0  0  0  0  0  0
   15.8334  -12.3742   -5.5388 O   0  0  0  0  0  0  0  0  0  0  0  0
   15.0688  -12.8335   -4.5303 C   0  0  0  0  0  0  0  0  0  0  0  0
   15.5541  -13.4446   -3.5870 O   0  0  0  0  0  0  0  0  0  0  0  0
   13.6328  -12.6224   -4.6506 C   0  0  0  0  0  0  0  0  0  0  0  0
   12.7554  -12.6363   -3.6236 C   0  0  0  0  0  0  0  0  0  0  0  0
   11.4163  -12.4182   -3.9225 N   0  0  0  0  0  0  0  0  0  0  0  0
   13.0797  -12.8519   -2.1914 C   0  0  0  0  0  0  0  0  0  0  0  0
   12.0538  -12.8588   -1.1786 O   0  0  0  0  0  0  0  0  0  0  0  0
   12.7422  -14.0761   -1.5213 O   0  0  0  0  0  0  0  0  0  0  0  0
    7.6357  -10.9454   -6.3038 C   0  0  0  0  0  0  0  0  0  0  0  0
    7.4545  -10.1451   -5.2191 N   0  0  0  0  0  0  0  0  0  0  0  0
    6.2063   -9.7552   -4.9188 C   0  0  0  0  0  0  0  0  0  0  0  0
    6.0441   -8.9631   -3.8504 F   0  0  0  0  0  0  0  0  0  0  0  0
    5.0926  -10.1269   -5.6357 C   0  0  0  0  0  0  0  0  0  0  0  0
    5.2582  -10.9473   -6.7522 C   0  0  0  0  0  0  0  0  0  0  0  0
    6.5554  -11.3833   -7.1186 C   0  0  0  0  0  0  0  0  0  0  0  0
    6.6569  -12.2143   -8.2623 C   0  0  0  0  0  0  0  0  0  0  0  0
    5.5419  -12.5100   -9.0582 C   0  0  0  0  0  0  0  0  0  0  0  0
    4.2777  -12.0999   -8.6690 C   0  0  0  0  0  0  0  0  0  0  0  0
    4.1427  -11.3413   -7.5112 C   0  0  0  0  0  0  0  0  0  0  0  0
    2.9150  -10.9459   -7.1366 F   0  0  0  0  0  0  0  0  0  0  0  0
    3.1438  -12.4264   -9.3649 O   0  0  0  0  0  0  0  0  0  0  0  0
    3.3516  -12.5696  -10.7872 C   0  0  1  0  0  0  0  0  0  0  0  0
    4.4806  -13.4205  -11.1988 C   0  0  0  0  0  0  0  0  0  0  0  0
    4.4801  -14.1588  -12.1686 O   0  0  0  0  0  0  0  0  0  0  0  0
    5.7170  -13.1800  -10.3573 C   0  0  0  0  0  0  0  0  0  0  0  0
    6.8297  -13.4380  -10.7950 O   0  0  0  0  0  0  0  0  0  0  0  0
    2.1873  -12.6655  -11.5691 O   0  0  0  0  0  0  0  0  0  0  0  0
    2.9735  -11.4417  -11.7020 C   0  0  1  0  0  0  0  0  0  0  0  0
    2.6419  -10.2889  -10.8275 O   0  0  0  0  0  0  0  0  0  0  0  0
    2.0240  -10.3971  -11.9792 C   0  0  0  0  0  0  0  0  0  0  0  0
    1.8716   -9.6244  -12.8980 O   0  0  0  0  0  0  0  0  0  0  0  0
    9.0038  -10.5619  -11.1357 C   0  0  0  0  0  0  0  0  0  0  0  0
    8.0491   -9.8068  -11.0489 O   0  0  0  0  0  0  0  0  0  0  0  0
    9.5228  -11.0241  -12.4676 C   0  0  0  0  0  0  0  0  0  0  0  0
    9.5071  -10.2736  -13.4288 O   0  0  0  0  0  0  0  0  0  0  0  0
   10.1326  -12.4078  -12.5554 C   0  0  0  0  0  0  0  0  0  0  0  0
   10.6656  -12.8140  -13.5744 O   0  0  0  0  0  0  0  0  0  0  0  0
  1  2  1  0  0  0  0
  2  3  2  0  0  0  0
  3  4  1  0  0  0  0
  3 53  1  0  0  0  0
  4  5  1  0  0  0  0
  5  6  1  1  0  0  0
  5 49  1  0  0  0  0
  6  7  1  0  0  0  0
  7  8  2  0  0  0  0
  7 12  1  0  0  0  0
  8  9  1  0  0  0  0
  8 26  1  0  0  0  0
  9 10  1  0  0  0  0
 10 11  2  0  0  0  0
 10 22  1  0  0  0  0
 11 12  1  0  0  0  0
 11 13  1  0  0  0  0
 13 14  1  0  0  0  0
 13 20  1  0  0  0  0
 14 15  1  0  0  0  0
 15 16  2  0  0  0  0
 15 17  1  0  0  0  0
 17 18  1  0  0  0  0
 18 19  2  0  0  0  0
 18 20  1  0  0  0  0
 20 21  2  0  0  0  0
 21 22  1  0  0  0  0
 21 23  1  0  0  0  0
 23 24  1  0  0  0  0
 23 25  1  0  0  0  0
 24 25  1  0  0  0  0
 26 27  2  0  0  0  0
 26 32  1  0  0  0  0
 27 28  1  0  0  0  0
 28 29  1  0  0  0  0
 28 30  2  0  0  0  0
 30 31  1  0  0  0  0
 31 32  2  0  0  0  0
 31 36  1  0  0  0  0
 32 33  1  0  0  0  0
 33 34  2  0  0  0  0
 34 35  1  0  0  0  0
 34 42  1  0  0  0  0
 35 36  2  0  0  0  0
 35 38  1  0  0  0  0
 36 37  1  0  0  0  0
 39 38  1  1  0  0  0
 39 40  1  0  0  0  0
 39 44  1  0  0  0  0
 39 45  1  0  0  0  0
 40 41  2  0  0  0  0
 40 42  1  0  0  0  0
 42 43  2  0  0  0  0
 45 44  1  1  0  0  0
 45 46  1  0  0  0  0
 45 47  1  0  0  0  0
 46 47  1  0  0  0  0
 47 48  2  0  0  0  0
 49 50  2  0  0  0  0
 49 51  1  0  0  0  0
 51 52  2  0  0  0  0
 51 53  1  0  0  0  0
 53 54  2  0  0  0  0
M  END
$$$$