
 OpenBabel09232003543D

 55 63  0  0  1  0  0  0  0  0999 V2000
    3.2058   -0.0092    2.8526 O   0  0  0  0  0  0  0  0  0  0  0  0
    4.3901    0.5330    2.2718 C   0  0  0  0  0  0  0  0  0  0  0  0
    5.6045   -0.3441    2.5882 C   0  0  3  0  0  0  0  0  0  0  0  0
    5.7987   -0.2991    4.0274 O   0  0  0  0  0  0  0  0  0  0  0  0
    5.7895   -1.6308    4.5498 C   0  0  2  0  0  0  0  0  0  0  0  0
    5.1211   -2.5052    3.4895 C   0  0  2  0  0  0  0  0  0  0  0  0
    5.5841   -1.8339    2.2058 C   0  0  3  0  0  0  0  0  0  0  0  0
    4.8233   -2.3095    0.9573 C   0  0  2  0  0  0  0  0  0  0  0  0
    5.0129   -3.7321    0.7889 O   0  0  0  0  0  0  0  0  0  0  0  0
    6.2272   -4.1082    0.2820 C   0  0  0  0  0  0  0  0  0  0  0  0
    6.7086   -5.3635    0.6421 C   0  0  0  0  0  0  0  0  0  0  0  0
    8.0056   -5.7788    0.2686 C   0  0  0  0  0  0  0  0  0  0  0  0
    8.4852   -7.0152    0.6989 C   0  0  0  0  0  0  0  0  0  0  0  0
    9.7810   -7.3732    0.3847 C   0  0  0  0  0  0  0  0  0  0  0  0
   10.6294   -6.5924   -0.3108 N   0  0  0  0  0  0  0  0  0  0  0  0
   10.1817   -5.3921   -0.7654 C   0  0  0  0  0  0  0  0  0  0  0  0
    8.8420   -4.9422   -0.5165 C   0  0  0  0  0  0  0  0  0  0  0  0
    8.2625   -3.7279   -0.9704 C   0  0  0  0  0  0  0  0  0  0  0  0
    6.9938   -3.3115   -0.5512 C   0  0  0  0  0  0  0  0  0  0  0  0
    6.4802   -1.9987   -0.9537 C   0  0  0  0  0  0  0  0  0  0  0  0
    7.0795   -1.2664   -1.7245 O   0  0  0  0  0  0  0  0  0  0  0  0
    5.1840   -1.5653   -0.3124 C   0  0  0  0  0  0  0  0  0  0  0  0
    4.5243   -0.6564   -0.7954 O   0  0  0  0  0  0  0  0  0  0  0  0
   11.2334   -4.5513   -1.4337 C   0  0  0  0  0  0  0  0  0  0  0  0
   12.3175   -5.0239   -2.1003 C   0  0  0  0  0  0  0  0  0  0  0  0
   12.5439   -6.3776   -2.3385 O   0  0  0  0  0  0  0  0  0  0  0  0
   13.9083   -6.8236   -2.4211 C   0  0  1  0  0  0  0  0  0  0  0  0
   14.4230   -7.1898   -1.1391 O   0  0  0  0  0  0  0  0  0  0  0  0
   15.7799   -7.4779   -1.1796 C   0  0  0  0  0  0  0  0  0  0  0  0
   16.6288   -7.0544   -0.2355 C   0  0  0  0  0  0  0  0  0  0  0  0
   16.2410   -6.2898    0.8317 O   0  0  0  0  0  0  0  0  0  0  0  0
   16.3362   -8.2916   -2.2953 C   0  0  0  0  0  0  0  0  0  0  0  0
   17.5152   -8.4702   -2.5119 O   0  0  0  0  0  0  0  0  0  0  0  0
   15.2519   -8.8176   -3.2128 C   0  0  0  0  0  0  0  0  0  0  0  0
   15.3549   -9.9152   -3.7237 O   0  0  0  0  0  0  0  0  0  0  0  0
   14.0467   -7.9379   -3.4590 C   0  0  0  0  0  0  0  0  0  0  0  0
   13.3962   -8.0438   -4.4886 O   0  0  0  0  0  0  0  0  0  0  0  0
   13.2736   -4.0580   -2.7391 C   0  0  0  0  0  0  0  0  0  0  0  0
   12.8769   -2.6295   -2.6704 C   0  0  0  0  0  0  0  0  0  0  0  0
   11.7648   -2.2605   -1.9525 C   0  0  0  0  0  0  0  0  0  0  0  0
   11.0327   -3.1802   -1.2383 O   0  0  0  0  0  0  0  0  0  0  0  0
   11.3091   -0.9908   -1.8920 N   0  0  0  0  0  0  0  0  0  0  0  0
   11.9887   -0.0117   -2.5600 C   0  0  0  0  0  0  0  0  0  0  0  0
   11.3844    1.3774   -2.5891 C   0  0  0  0  0  0  0  0  0  0  0  0
   10.4806    1.6846   -3.7004 N   0  0  0  0  0  0  0  0  0  0  0  0
    9.9447    1.5448   -2.3911 N   0  0  0  0  0  0  0  0  0  0  0  0
   13.1691   -0.3012   -3.2551 C   0  0  0  0  0  0  0  0  0  0  0  0
   13.6032   -1.6221   -3.2991 C   0  0  0  0  0  0  0  0  0  0  0  0
   14.7824   -1.9208   -3.9912 N   0  0  0  0  0  0  0  0  0  0  0  0
   15.6044   -0.9983   -4.5518 C   0  0  0  0  0  0  0  0  0  0  0  0
   16.6512   -1.3310   -5.0961 O   0  0  0  0  0  0  0  0  0  0  0  0
   15.2296    0.2981   -4.4531 N   0  0  0  0  0  0  0  0  0  0  0  0
   13.9159    0.7318   -4.0433 C   0  0  0  0  0  0  0  0  0  0  0  0
    3.6972   -2.4734    3.6376 O   0  0  0  0  0  0  0  0  0  0  0  0
    5.1041   -1.6993    5.7846 O   0  0  0  0  0  0  0  0  0  0  0  0
  1  2  1  0  0  0  0
  2  3  1  0  0  0  0
  3  4  1  0  0  0  0
  3  7  1  0  0  0  0
  4  5  1  0  0  0  0
  5  6  1  0  0  0  0
  5 55  1  1  0  0  0
  6  7  1  0  0  0  0
  6 54  1  1  0  0  0
  8  9  1  6  0  0  0
  8 22  1  0  0  0  0
  8  7  1  0  0  0  0
  9 10  1  0  0  0  0
 10 11  2  0  0  0  0
 10 19  1  0  0  0  0
 11 12  1  0  0  0  0
 12 13  2  0  0  0  0
 12 17  1  0  0  0  0
 13 14  1  0  0  0  0
 14 15  2  0  0  0  0
 15 16  1  0  0  0  0
 16 17  2  0  0  0  0
 16 24  1  0  0  0  0
 17 18  1  0  0  0  0
 18 19  2  0  0  0  0
 19 20  1  0  0  0  0
 20 21  2  0  0  0  0
 20 22  1  0  0  0  0
 22 23  2  0  0  0  0
 24 25  2  0  0  0  0
 24 41  1  0  0  0  0
 25 26  1  0  0  0  0
 25 38  1  0  0  0  0
 27 26  1  1  0  0  0
 27 28  1  0  0  0  0
 27 36  1  0  0  0  0
 28 29  1  0  0  0  0
 29 30  2  0  0  0  0
 29 32  1  0  0  0  0
 30 31  1  0  0  0  0
 32 33  2  0  0  0  0
 32 34  1  0  0  0  0
 34 35  2  0  0  0  0
 34 36  1  0  0  0  0
 36 37  2  0  0  0  0
 38 39  1  0  0  0  0
 39 40  2  0  0  0  0
 39 48  1  0  0  0  0
 40 41  1  0  0  0  0
 40 42  1  0  0  0  0
 42 43  2  0  0  0  0
 43 44  1  0  0  0  0
 43 47  1  0  0  0  0
 44 45  1  0  0  0  0
 44 46  1  0  0  0  0
 45 46  1  0  0  0  0
 47 48  2  0  0  0  0
 47 53  1  0  0  0  0
 48 49  1  0  0  0  0
 49 50  1  0  0  0  0
 50 51  2  0  0  0  0
 50 52  1  0  0  0  0
 52 53  1  0  0  0  0
M  END
$$$$