
 OpenBabel12062000313D

 54 62  0  0  1  0  0  0  0  0999 V2000
   -1.9796    3.6430   -2.1861 O   0  0  0  0  0  0  0  0  0  0  0  0
   -1.4637    2.7791   -1.2531 C   0  0  0  0  0  0  0  0  0  0  0  0
   -0.3673    2.0430   -1.4725 C   0  0  0  0  0  0  0  0  0  0  0  0
    0.2818    2.1025   -2.6950 O   0  0  0  0  0  0  0  0  0  0  0  0
    1.6839    1.8532   -2.6419 C   0  0  2  0  0  0  0  0  0  0  0  0
    2.2805    1.9750   -3.9409 O   0  0  0  0  0  0  0  0  0  0  0  0
    2.1877    3.2062   -4.5773 C   0  0  0  0  0  0  0  0  0  0  0  0
    2.1645    3.2846   -5.9253 C   0  0  0  0  0  0  0  0  0  0  0  0
    2.1290    4.5029   -6.6052 O   0  0  0  0  0  0  0  0  0  0  0  0
    2.2427    5.6949   -5.8985 C   0  0  0  0  0  0  0  0  0  0  0  0
    2.3015    5.7123   -4.5545 C   0  0  0  0  0  0  0  0  0  0  0  0
    2.2237    4.4552   -3.7379 C   0  0  0  0  0  0  0  0  0  0  0  0
    2.4496    6.9921   -3.7825 C   0  0  3  0  0  0  0  0  0  0  0  0
    3.7076    6.9510   -3.1320 O   0  0  0  0  0  0  0  0  0  0  0  0
    4.1016    8.0480   -2.4323 C   0  0  0  0  0  0  0  0  0  0  0  0
    5.0159    7.9945   -1.6265 O   0  0  0  0  0  0  0  0  0  0  0  0
    3.4239    9.1940   -2.6854 O   0  0  0  0  0  0  0  0  0  0  0  0
    2.6347    9.4012   -3.8502 C   0  0  3  0  0  0  0  0  0  0  0  0
    2.4832    8.1749   -4.6713 C   0  0  0  0  0  0  0  0  0  0  0  0
    2.4078    8.0911   -6.0178 C   0  0  0  0  0  0  0  0  0  0  0  0
    2.3020    6.8543   -6.6342 O   0  3  0  0  0  0  0  0  0  0  0  0
    2.4469    9.2659   -6.9184 C   0  0  0  0  0  0  0  0  0  0  0  0
    3.6852    9.7367   -7.4635 O   0  0  0  0  0  0  0  0  0  0  0  0
    2.7169    9.1021   -8.3215 O   0  0  0  0  0  0  0  0  0  0  0  0
    1.3206    9.7421   -3.4547 O   0  0  0  0  0  0  0  0  0  0  0  0
    2.1887    2.1137   -6.8167 C   0  0  0  0  0  0  0  0  0  0  0  0
    1.1906    1.2227   -6.6945 C   0  0  0  0  0  0  0  0  0  0  0  0
    1.2035    0.0576   -7.5277 N   0  3  0  0  0  0  0  0  0  0  0  0
    0.3029   -0.7347   -7.3383 O   0  0  0  0  0  0  0  0  0  0  0  0
    2.1215   -0.1710   -8.5470 O   0  0  0  0  0  0  0  0  0  0  0  0
    3.1357    0.7684   -8.6202 C   0  0  0  0  0  0  0  0  0  0  0  0
    3.2280    1.8512   -7.8235 C   0  0  0  0  0  0  0  0  0  0  0  0
    4.3890    2.8080   -7.9076 C   0  0  0  0  0  0  0  0  0  0  0  0
    5.3116    2.5560   -9.0534 C   0  0  0  0  0  0  0  0  0  0  0  0
    5.2438    1.5247   -9.9021 C   0  0  0  0  0  0  0  0  0  0  0  0
    4.1686    0.5026   -9.6766 C   0  0  0  0  0  0  0  0  0  0  0  0
    4.1252   -0.5162  -10.3570 O   0  0  0  0  0  0  0  0  0  0  0  0
    6.0687    1.3353  -10.9896 O   0  0  0  0  0  0  0  0  0  0  0  0
    7.2686    2.1142  -11.0894 C   0  0  2  0  0  0  0  0  0  0  0  0
    7.0618    3.5256  -10.6063 C   0  0  0  0  0  0  0  0  0  0  0  0
    7.4299    4.5534  -11.1532 O   0  0  0  0  0  0  0  0  0  0  0  0
    6.3198    3.6008   -9.2981 C   0  0  0  0  0  0  0  0  0  0  0  0
    6.4942    4.5208   -8.5126 O   0  0  0  0  0  0  0  0  0  0  0  0
    7.7998    2.0052  -12.4870 C   0  0  1  0  0  0  0  0  0  0  0  0
    8.2022    0.6764  -12.8923 O   0  0  0  0  0  0  0  0  0  0  0  0
    7.1016    2.7704  -13.4746 O   0  0  0  0  0  0  0  0  0  0  0  0
    8.3970    3.0991  -13.2622 C   0  0  0  0  0  0  0  0  0  0  0  0
    9.3378    3.0843  -14.0183 O   0  0  0  0  0  0  0  0  0  0  0  0
    1.9289    0.4646   -2.0836 C   0  0  0  0  0  0  0  0  0  0  0  0
    2.5552   -0.4370   -2.6147 O   0  0  0  0  0  0  0  0  0  0  0  0
    1.3232    0.3181   -0.7135 C   0  0  0  0  0  0  0  0  0  0  0  0
    1.8707   -0.3766    0.1260 O   0  0  0  0  0  0  0  0  0  0  0  0
    0.1035    1.1510   -0.3689 C   0  0  0  0  0  0  0  0  0  0  0  0
   -0.4022    1.1229    0.7405 O   0  0  0  0  0  0  0  0  0  0  0  0
  1  2  1  0  0  0  0
  2  3  2  0  0  0  0
  3  4  1  0  0  0  0
  3 53  1  0  0  0  0
  4  5  1  0  0  0  0
  5  6  1  6  0  0  0
  5 49  1  0  0  0  0
  6  7  1  0  0  0  0
  7  8  2  0  0  0  0
  7 12  1  0  0  0  0
  8  9  1  0  0  0  0
  8 26  1  0  0  0  0
  9 10  1  0  0  0  0
 10 11  2  0  0  0  0
 10 21  1  0  0  0  0
 11 12  1  0  0  0  0
 11 13  1  0  0  0  0
 13 14  1  0  0  0  0
 13 19  1  0  0  0  0
 14 15  1  0  0  0  0
 15 16  2  0  0  0  0
 15 17  1  0  0  0  0
 17 18  1  0  0  0  0
 18 19  1  0  0  0  0
 18 25  1  0  0  0  0
 19 20  2  0  0  0  0
 20 21  1  0  0  0  0
 20 22  1  0  0  0  0
 22 23  1  0  0  0  0
 22 24  1  0  0  0  0
 23 24  1  0  0  0  0
 26 27  2  0  0  0  0
 26 32  1  0  0  0  0
 27 28  1  0  0  0  0
 28 29  2  0  0  0  0
 28 30  1  0  0  0  0
 30 31  1  0  0  0  0
 31 32  2  0  0  0  0
 31 36  1  0  0  0  0
 32 33  1  0  0  0  0
 33 34  1  0  0  0  0
 34 35  2  0  0  0  0
 34 42  1  0  0  0  0
 35 36  1  0  0  0  0
 35 38  1  0  0  0  0
 36 37  2  0  0  0  0
 39 38  1  6  0  0  0
 39 40  1  0  0  0  0
 39 44  1  0  0  0  0
 40 41  2  0  0  0  0
 40 42  1  0  0  0  0
 42 43  2  0  0  0  0
 44 45  1  6  0  0  0
 44 46  1  0  0  0  0
 44 47  1  0  0  0  0
 46 47  1  0  0  0  0
 47 48  2  0  0  0  0
 49 50  2  0  0  0  0
 49 51  1  0  0  0  0
 51 52  2  0  0  0  0
 51 53  1  0  0  0  0
 53 54  2  0  0  0  0
M  CHG  2  21   1  28   1
M  END
$$$$