
 OpenBabel11232002513D

 54 62  0  0  1  0  0  0  0  0999 V2000
   -1.4007   -1.7512   -4.8796 O   0  0  0  0  0  0  0  0  0  0  0  0
   -1.0510   -1.2400   -3.6512 C   0  0  0  0  0  0  0  0  0  0  0  0
   -0.2641   -1.8848   -2.7749 C   0  0  0  0  0  0  0  0  0  0  0  0
    0.2729   -3.5054   -3.0580 S   0  0  0  0  0  0  0  0  0  0  0  0
    1.9571   -3.5047   -2.3632 C   0  0  2  0  0  0  0  0  0  0  0  0
    2.5537   -4.8327   -2.4193 O   0  0  0  0  0  0  0  0  0  0  0  0
    2.7245   -5.4491   -3.6567 C   0  0  0  0  0  0  0  0  0  0  0  0
    2.6213   -6.7921   -3.8198 C   0  0  0  0  0  0  0  0  0  0  0  0
    2.7337   -7.3889   -5.0913 O   0  0  0  0  0  0  0  0  0  0  0  0
    2.9775   -6.6179   -6.2287 C   0  0  0  0  0  0  0  0  0  0  0  0
    3.1600   -5.2927   -6.1217 C   0  0  0  0  0  0  0  0  0  0  0  0
    3.0987   -4.5702   -4.8164 C   0  0  0  0  0  0  0  0  0  0  0  0
    3.3386   -4.4139   -7.3162 C   0  0  3  0  0  0  0  0  0  0  0  0
    4.5973   -3.7809   -7.2334 O   0  0  0  0  0  0  0  0  0  0  0  0
    4.8101   -2.8429   -8.1994 C   0  0  0  0  0  0  0  0  0  0  0  0
    5.6394   -1.9604   -8.0711 O   0  0  0  0  0  0  0  0  0  0  0  0
    3.9793   -2.9412   -9.2703 O   0  0  0  0  0  0  0  0  0  0  0  0
    3.5956   -4.2378   -9.7147 C   0  0  3  0  0  0  0  0  0  0  0  0
    3.3463   -5.1730   -8.5818 C   0  0  0  0  0  0  0  0  0  0  0  0
    3.1547   -6.5109   -8.6401 C   0  0  0  0  0  0  0  0  0  0  0  0
    2.9959   -7.2424   -7.4611 O   0  3  0  0  0  0  0  0  0  0  0  0
    3.0791   -7.2797   -9.9009 C   0  0  3  0  0  0  0  0  0  0  0  0
    2.2848   -8.4633   -9.8781 N   0  0  0  0  0  0  0  0  0  0  0  0
    3.5166   -8.6306   -9.8710 N   0  0  0  0  0  0  0  0  0  0  0  0
    2.3535   -4.1401  -10.3800 O   0  0  0  0  0  0  0  0  0  0  0  0
    2.3614   -7.7585   -2.6981 C   0  0  0  0  0  0  0  0  0  0  0  0
    1.6082   -7.3440   -1.5993 C   0  0  0  0  0  0  0  0  0  0  0  0
    1.3361   -8.1609   -0.5811 N   0  3  0  0  0  0  0  0  0  0  0  0
    0.6188   -7.6879    0.4564 F   0  0  0  0  0  0  0  0  0  0  0  0
    1.7133   -9.4199   -0.5656 N   0  0  0  0  0  0  0  0  0  0  0  0
    2.4225   -9.9084   -1.5851 C   0  0  0  0  0  0  0  0  0  0  0  0
    2.8069   -9.1082   -2.6832 C   0  0  0  0  0  0  0  0  0  0  0  0
    3.6096   -9.7173   -3.6812 C   0  0  0  0  0  0  0  0  0  0  0  0
    3.9353  -11.0769   -3.6397 C   0  0  0  0  0  0  0  0  0  0  0  0
    4.6887  -11.6801   -4.7412 C   0  0  0  0  0  0  0  0  0  0  0  0
    5.0584  -11.0034   -5.6883 O   0  0  0  0  0  0  0  0  0  0  0  0
    4.9227  -13.1689   -4.6412 C   0  0  0  0  0  0  0  0  0  0  0  0
    5.8989  -13.6742   -5.1697 O   0  0  0  0  0  0  0  0  0  0  0  0
    3.8795  -13.8927   -3.8150 C   0  0  1  0  0  0  0  0  0  0  0  0
    3.6554  -13.2253   -2.5541 O   0  0  0  0  0  0  0  0  0  0  0  0
    3.4946  -11.8680   -2.5984 C   0  0  0  0  0  0  0  0  0  0  0  0
    2.7779  -11.2594   -1.5672 C   0  0  0  0  0  0  0  0  0  0  0  0
    2.3584  -12.0166   -0.5412 F   0  0  0  0  0  0  0  0  0  0  0  0
    2.6039  -14.1564   -4.5853 C   0  0  1  0  0  0  0  0  0  0  0  0
    2.7253  -14.9486   -5.7769 O   0  0  0  0  0  0  0  0  0  0  0  0
    1.4487  -14.4633   -3.7781 O   0  0  0  0  0  0  0  0  0  0  0  0
    1.3965  -13.3240   -4.4917 C   0  0  0  0  0  0  0  0  0  0  0  0
    1.2089  -12.1755   -4.1941 O   0  0  0  0  0  0  0  0  0  0  0  0
    1.8288   -3.0851   -0.9116 C   0  0  0  0  0  0  0  0  0  0  0  0
    2.1259   -3.7918    0.0436 O   0  0  0  0  0  0  0  0  0  0  0  0
    1.2619   -1.6971   -0.7205 C   0  0  0  0  0  0  0  0  0  0  0  0
    1.8680   -0.9262    0.0081 O   0  0  0  0  0  0  0  0  0  0  0  0
    0.0279   -1.2258   -1.4699 C   0  0  0  0  0  0  0  0  0  0  0  0
   -0.6680   -0.3316   -1.0135 O   0  0  0  0  0  0  0  0  0  0  0  0
  1  2  1  0  0  0  0
  2  3  2  0  0  0  0
  3  4  1  0  0  0  0
  3 53  1  0  0  0  0
  4  5  1  0  0  0  0
  5  6  1  1  0  0  0
  5 49  1  0  0  0  0
  6  7  1  0  0  0  0
  7  8  2  0  0  0  0
  7 12  1  0  0  0  0
  8  9  1  0  0  0  0
  8 26  1  0  0  0  0
  9 10  1  0  0  0  0
 10 11  2  0  0  0  0
 10 21  1  0  0  0  0
 11 12  1  0  0  0  0
 11 13  1  0  0  0  0
 13 14  1  0  0  0  0
 13 19  1  0  0  0  0
 14 15  1  0  0  0  0
 15 16  2  0  0  0  0
 15 17  1  0  0  0  0
 17 18  1  0  0  0  0
 18 19  1  0  0  0  0
 18 25  1  0  0  0  0
 19 20  2  0  0  0  0
 20 21  1  0  0  0  0
 20 22  1  0  0  0  0
 22 23  1  0  0  0  0
 22 24  1  0  0  0  0
 23 24  2  0  0  0  0
 26 27  2  0  0  0  0
 26 32  1  0  0  0  0
 27 28  1  0  0  0  0
 28 29  1  0  0  0  0
 28 30  2  0  0  0  0
 30 31  1  0  0  0  0
 31 32  2  0  0  0  0
 31 42  1  0  0  0  0
 32 33  1  0  0  0  0
 33 34  2  0  0  0  0
 34 35  1  0  0  0  0
 34 41  1  0  0  0  0
 35 36  2  0  0  0  0
 35 37  1  0  0  0  0
 37 38  2  0  0  0  0
 39 37  1  6  0  0  0
 39 40  1  0  0  0  0
 39 44  1  0  0  0  0
 40 41  1  0  0  0  0
 41 42  2  0  0  0  0
 42 43  1  0  0  0  0
 44 45  1  6  0  0  0
 44 46  1  0  0  0  0
 44 47  1  0  0  0  0
 46 47  1  0  0  0  0
 47 48  2  0  0  0  0
 49 50  2  0  0  0  0
 49 51  1  0  0  0  0
 51 52  2  0  0  0  0
 51 53  1  0  0  0  0
 53 54  2  0  0  0  0
M  CHG  2  21   1  28   1
M  END
$$$$