
 OpenBabel11242001073D

 54 62  0  0  1  0  0  0  0  0999 V2000
    4.0667    4.8707    3.2854 O   0  0  0  0  0  0  0  0  0  0  0  0
    4.0651    3.5141    3.0755 C   0  0  0  0  0  0  0  0  0  0  0  0
    3.3476    2.9289    2.1091 C   0  0  0  0  0  0  0  0  0  0  0  0
    2.5046    3.6600    1.2937 O   0  0  0  0  0  0  0  0  0  0  0  0
    2.8140    3.4565   -0.0763 C   0  0  2  0  0  0  0  0  0  0  0  0
    2.0784    4.3774   -0.9220 O   0  0  0  0  0  0  0  0  0  0  0  0
    2.3083    5.7461   -0.8173 C   0  0  0  0  0  0  0  0  0  0  0  0
    1.6584    6.6428   -1.6080 C   0  0  0  0  0  0  0  0  0  0  0  0
    1.8664    8.0275   -1.4776 O   0  0  0  0  0  0  0  0  0  0  0  0
    2.6944    8.5243   -0.4838 C   0  0  0  0  0  0  0  0  0  0  0  0
    3.4294    7.6843    0.3316 C   0  0  0  0  0  0  0  0  0  0  0  0
    3.2825    6.2097    0.2336 C   0  0  0  0  0  0  0  0  0  0  0  0
    4.2725    8.2492    1.2864 C   0  0  0  0  0  0  0  0  0  0  0  0
    4.9894    7.3905    2.1175 O   0  0  0  0  0  0  0  0  0  0  0  0
    5.9071    7.8207    3.0744 C   0  0  0  0  0  0  0  0  0  0  0  0
    6.5056    7.0096    3.7669 O   0  0  0  0  0  0  0  0  0  0  0  0
    6.1193    9.1543    3.1428 O   0  0  0  0  0  0  0  0  0  0  0  0
    5.2732   10.1201    2.5331 C   0  0  3  0  0  0  0  0  0  0  0  0
    4.3880    9.6063    1.4468 C   0  0  0  0  0  0  0  0  0  0  0  0
    3.6040   10.4326    0.6281 C   0  0  0  0  0  0  0  0  0  0  0  0
    2.8029    9.8523   -0.3034 N   0  3  0  0  0  0  0  0  0  0  0  0
    3.6129   11.9273    0.6723 C   0  0  0  0  0  0  0  0  0  0  0  0
    4.5604   12.5780   -0.1820 O   0  0  0  0  0  0  0  0  0  0  0  0
    3.1557   12.6030   -0.5081 O   0  0  0  0  0  0  0  0  0  0  0  0
    4.4047   10.6672    3.5046 O   0  0  0  0  0  0  0  0  0  0  0  0
    0.6614    6.2543   -2.6896 C   0  0  0  0  0  0  0  0  0  0  0  0
    0.8136    5.0151   -3.3259 C   0  0  0  0  0  0  0  0  0  0  0  0
   -0.0606    4.5701   -4.2321 N   0  3  0  0  0  0  0  0  0  0  0  0
    0.1270    3.3559   -4.7845 F   0  0  0  0  0  0  0  0  0  0  0  0
   -1.0888    5.2800   -4.6284 N   0  0  0  0  0  0  0  0  0  0  0  0
   -1.2692    6.5047   -4.1457 C   0  0  0  0  0  0  0  0  0  0  0  0
   -0.4214    7.0675   -3.1599 C   0  0  0  0  0  0  0  0  0  0  0  0
   -0.7353    8.3943   -2.7501 C   0  0  0  0  0  0  0  0  0  0  0  0
   -1.7988    9.1202   -3.3173 C   0  0  0  0  0  0  0  0  0  0  0  0
   -2.0661   10.4983   -2.9010 C   0  0  0  0  0  0  0  0  0  0  0  0
   -1.2373   11.1007   -2.2343 O   0  0  0  0  0  0  0  0  0  0  0  0
   -3.3850   11.1056   -3.3438 C   0  0  0  0  0  0  0  0  0  0  0  0
   -3.5921   12.2984   -3.1857 O   0  0  0  0  0  0  0  0  0  0  0  0
   -4.3652   10.1155   -3.9442 C   0  0  1  0  0  0  0  0  0  0  0  0
   -3.7151    9.1515   -4.7950 O   0  0  0  0  0  0  0  0  0  0  0  0
   -2.6152    8.5419   -4.2648 C   0  0  0  0  0  0  0  0  0  0  0  0
   -2.3345    7.2402   -4.6642 C   0  0  0  0  0  0  0  0  0  0  0  0
   -3.1436    6.6571   -5.5637 F   0  0  0  0  0  0  0  0  0  0  0  0
   -5.2799    9.4843   -2.9066 C   0  0  1  0  0  0  0  0  0  0  0  0
   -6.1040   10.3886   -2.1682 O   0  0  0  0  0  0  0  0  0  0  0  0
   -5.9369    8.2723   -3.3431 O   0  0  0  0  0  0  0  0  0  0  0  0
   -5.0702    8.1776   -2.2972 C   0  0  0  0  0  0  0  0  0  0  0  0
   -4.0777    7.5016   -2.1079 O   0  0  0  0  0  0  0  0  0  0  0  0
    2.4380    2.0379   -0.4708 C   0  0  0  0  0  0  0  0  0  0  0  0
    1.9459    1.7430   -1.5534 O   0  0  0  0  0  0  0  0  0  0  0  0
    2.7873    1.0066    0.5943 C   0  0  0  0  0  0  0  0  0  0  0  0
    2.5157   -0.1679    0.4146 O   0  0  0  0  0  0  0  0  0  0  0  0
    3.4852    1.4649    1.8690 C   0  0  0  0  0  0  0  0  0  0  0  0
    4.1544    0.7193    2.5588 O   0  0  0  0  0  0  0  0  0  0  0  0
  1  2  1  0  0  0  0
  2  3  2  0  0  0  0
  3  4  1  0  0  0  0
  3 53  1  0  0  0  0
  4  5  1  0  0  0  0
  5  6  1  6  0  0  0
  5 49  1  0  0  0  0
  6  7  1  0  0  0  0
  7  8  2  0  0  0  0
  7 12  1  0  0  0  0
  8  9  1  0  0  0  0
  8 26  1  0  0  0  0
  9 10  1  0  0  0  0
 10 11  2  0  0  0  0
 10 21  1  0  0  0  0
 11 12  1  0  0  0  0
 11 13  1  0  0  0  0
 13 14  1  0  0  0  0
 13 19  2  0  0  0  0
 14 15  1  0  0  0  0
 15 16  2  0  0  0  0
 15 17  1  0  0  0  0
 17 18  1  0  0  0  0
 18 19  1  0  0  0  0
 18 25  1  0  0  0  0
 19 20  1  0  0  0  0
 20 21  2  0  0  0  0
 20 22  1  0  0  0  0
 22 23  1  0  0  0  0
 22 24  1  0  0  0  0
 23 24  1  0  0  0  0
 26 27  2  0  0  0  0
 26 32  1  0  0  0  0
 27 28  1  0  0  0  0
 28 29  1  0  0  0  0
 28 30  2  0  0  0  0
 30 31  1  0  0  0  0
 31 32  2  0  0  0  0
 31 42  1  0  0  0  0
 32 33  1  0  0  0  0
 33 34  2  0  0  0  0
 34 35  1  0  0  0  0
 34 41  1  0  0  0  0
 35 36  2  0  0  0  0
 35 37  1  0  0  0  0
 37 38  2  0  0  0  0
 39 37  1  1  0  0  0
 39 40  1  0  0  0  0
 39 44  1  0  0  0  0
 40 41  1  0  0  0  0
 41 42  2  0  0  0  0
 42 43  1  0  0  0  0
 44 45  1  1  0  0  0
 44 46  1  0  0  0  0
 44 47  1  0  0  0  0
 46 47  1  0  0  0  0
 47 48  2  0  0  0  0
 49 50  2  0  0  0  0
 49 51  1  0  0  0  0
 51 52  2  0  0  0  0
 51 53  1  0  0  0  0
 53 54  2  0  0  0  0
M  CHG  2  21   1  28   1
M  END
$$$$