
 OpenBabel11222003223D

 54 62  0  0  1  0  0  0  0  0999 V2000
   -1.7648    2.8839   -3.6840 O   0  0  0  0  0  0  0  0  0  0  0  0
   -1.4587    2.2027   -2.5328 C   0  0  0  0  0  0  0  0  0  0  0  0
   -0.5667    1.2049   -2.4892 C   0  0  0  0  0  0  0  0  0  0  0  0
    0.0660    0.7628   -3.6399 O   0  0  0  0  0  0  0  0  0  0  0  0
    1.4060    0.3307   -3.4410 C   0  0  2  0  0  0  0  0  0  0  0  0
    1.9791   -0.1540   -4.6843 O   0  0  0  0  0  0  0  0  0  0  0  0
    2.0237    0.7163   -5.7607 C   0  0  0  0  0  0  0  0  0  0  0  0
    1.9224    0.2541   -7.0243 C   0  0  0  0  0  0  0  0  0  0  0  0
    1.9556    1.0875   -8.1416 O   0  0  0  0  0  0  0  0  0  0  0  0
    2.1244    2.4615   -7.9760 C   0  0  0  0  0  0  0  0  0  0  0  0
    2.3176    3.0033   -6.7580 C   0  0  0  0  0  0  0  0  0  0  0  0
    2.2816    2.1811   -5.4990 C   0  0  0  0  0  0  0  0  0  0  0  0
    2.5405    4.4815   -6.5747 C   0  0  3  0  0  0  0  0  0  0  0  0
    3.8556    4.6667   -6.0825 O   0  0  0  0  0  0  0  0  0  0  0  0
    4.2377    5.9580   -5.8618 C   0  0  0  0  0  0  0  0  0  0  0  0
    5.2214    6.2292   -5.1956 O   0  0  0  0  0  0  0  0  0  0  0  0
    3.4246    6.9007   -6.4004 O   0  0  0  0  0  0  0  0  0  0  0  0
    2.7598    6.6572   -7.6342 C   0  0  3  0  0  0  0  0  0  0  0  0
    2.4925    5.2127   -7.8602 C   0  0  0  0  0  0  0  0  0  0  0  0
    2.2615    4.6118   -9.0467 C   0  0  0  0  0  0  0  0  0  0  0  0
    2.0894    3.2403   -9.1104 O   0  3  0  0  0  0  0  0  0  0  0  0
    2.1970    5.3315  -10.3390 C   0  0  0  0  0  0  0  0  0  0  0  0
    3.3673    5.5075  -11.1449 O   0  0  0  0  0  0  0  0  0  0  0  0
    2.3287    4.6073  -11.5757 O   0  0  0  0  0  0  0  0  0  0  0  0
    1.4753    7.2463   -7.5881 O   0  0  0  0  0  0  0  0  0  0  0  0
    1.7959   -1.1809   -7.3649 C   0  0  0  0  0  0  0  0  0  0  0  0
    2.9611   -1.9192   -7.5654 C   0  0  0  0  0  0  0  0  0  0  0  0
    2.8999   -3.1953   -7.9637 N   0  3  0  0  0  0  0  0  0  0  0  0
    4.0440   -3.8717   -8.1847 F   0  0  0  0  0  0  0  0  0  0  0  0
    1.7559   -3.8124   -8.1890 N   0  0  0  0  0  0  0  0  0  0  0  0
    0.6005   -3.1745   -7.9752 C   0  0  0  0  0  0  0  0  0  0  0  0
    0.5609   -1.8354   -7.5456 C   0  0  0  0  0  0  0  0  0  0  0  0
   -0.6987   -1.2324   -7.3276 C   0  0  0  0  0  0  0  0  0  0  0  0
   -1.8883   -1.9497   -7.5349 C   0  0  0  0  0  0  0  0  0  0  0  0
   -3.1838   -1.2907   -7.3108 C   0  0  0  0  0  0  0  0  0  0  0  0
   -3.2407   -0.1079   -7.0188 O   0  0  0  0  0  0  0  0  0  0  0  0
   -4.4118   -2.1498   -7.5250 C   0  0  0  0  0  0  0  0  0  0  0  0
   -5.5380   -1.6915   -7.4555 O   0  0  0  0  0  0  0  0  0  0  0  0
   -4.1978   -3.5751   -7.9230 C   0  0  0  0  0  0  0  0  0  0  0  0
   -3.0165   -4.0617   -8.1562 N   0  0  0  0  0  0  0  0  0  0  0  0
   -1.8651   -3.2727   -7.9675 C   0  0  0  0  0  0  0  0  0  0  0  0
   -0.6046   -3.8488   -8.1878 C   0  0  0  0  0  0  0  0  0  0  0  0
   -0.5432   -5.1172   -8.6274 F   0  0  0  0  0  0  0  0  0  0  0  0
   -5.4209   -4.3800   -8.0098 C   0  0  1  0  0  0  0  0  0  0  0  0
   -6.1671   -4.2950   -9.2413 O   0  0  0  0  0  0  0  0  0  0  0  0
   -5.3722   -5.6780   -7.4167 O   0  0  0  0  0  0  0  0  0  0  0  0
   -6.1243   -4.7614   -6.7882 C   0  0  0  0  0  0  0  0  0  0  0  0
   -6.0214   -4.3135   -5.6594 O   0  0  0  0  0  0  0  0  0  0  0  0
    1.4809   -0.8232   -2.4568 C   0  0  0  0  0  0  0  0  0  0  0  0
    2.1518   -1.8335   -2.6183 O   0  0  0  0  0  0  0  0  0  0  0  0
    0.6467   -0.6052   -1.2173 C   0  0  0  0  0  0  0  0  0  0  0  0
    0.7567   -1.3659   -0.2707 O   0  0  0  0  0  0  0  0  0  0  0  0
   -0.3183    0.5606   -1.1667 C   0  0  0  0  0  0  0  0  0  0  0  0
   -0.8091    0.9451   -0.1200 O   0  0  0  0  0  0  0  0  0  0  0  0
  1  2  1  0  0  0  0
  2  3  2  0  0  0  0
  3  4  1  0  0  0  0
  3 53  1  0  0  0  0
  4  5  1  0  0  0  0
  5  6  1  6  0  0  0
  5 49  1  0  0  0  0
  6  7  1  0  0  0  0
  7  8  2  0  0  0  0
  7 12  1  0  0  0  0
  8  9  1  0  0  0  0
  8 26  1  0  0  0  0
  9 10  1  0  0  0  0
 10 11  2  0  0  0  0
 10 21  1  0  0  0  0
 11 12  1  0  0  0  0
 11 13  1  0  0  0  0
 13 14  1  0  0  0  0
 13 19  1  0  0  0  0
 14 15  1  0  0  0  0
 15 16  2  0  0  0  0
 15 17  1  0  0  0  0
 17 18  1  0  0  0  0
 18 19  1  0  0  0  0
 18 25  1  0  0  0  0
 19 20  2  0  0  0  0
 20 21  1  0  0  0  0
 20 22  1  0  0  0  0
 22 23  1  0  0  0  0
 22 24  1  0  0  0  0
 23 24  1  0  0  0  0
 26 27  2  0  0  0  0
 26 32  1  0  0  0  0
 27 28  1  0  0  0  0
 28 29  1  0  0  0  0
 28 30  2  0  0  0  0
 30 31  1  0  0  0  0
 31 32  2  0  0  0  0
 31 42  1  0  0  0  0
 32 33  1  0  0  0  0
 33 34  2  0  0  0  0
 34 35  1  0  0  0  0
 34 41  1  0  0  0  0
 35 36  2  0  0  0  0
 35 37  1  0  0  0  0
 37 38  2  0  0  0  0
 37 39  1  0  0  0  0
 39 40  2  0  0  0  0
 40 41  1  0  0  0  0
 41 42  2  0  0  0  0
 42 43  1  0  0  0  0
 44 39  1  1  0  0  0
 44 45  1  0  0  0  0
 44 46  1  0  0  0  0
 44 47  1  0  0  0  0
 46 47  1  0  0  0  0
 47 48  2  0  0  0  0
 49 50  2  0  0  0  0
 49 51  1  0  0  0  0
 51 52  2  0  0  0  0
 51 53  1  0  0  0  0
 53 54  2  0  0  0  0
M  CHG  2  21   1  28   1
M  END
$$$$