
 OpenBabel09212004033D

 46 52  0  0  1  0  0  0  0  0999 V2000
   -2.0504   -2.8821   10.8705 O   0  0  0  0  0  0  0  0  0  0  0  0
   -1.5870   -1.9717    9.8900 C   0  0  0  0  0  0  0  0  0  0  0  0
   -0.6063   -0.9420   10.4682 C   0  0  2  0  0  0  0  0  0  0  0  0
   -0.2001   -0.0440    9.4289 O   0  0  0  0  0  0  0  0  0  0  0  0
    0.7568   -0.5453    8.5900 C   0  0  0  0  0  0  0  0  0  0  0  0
    0.7477   -0.0778    7.2783 C   0  0  0  0  0  0  0  0  0  0  0  0
    1.6922   -0.5408    6.3436 C   0  0  0  0  0  0  0  0  0  0  0  0
    1.6684   -0.0764    5.0271 C   0  0  0  0  0  0  0  0  0  0  0  0
    2.6242   -0.5375    4.1403 C   0  0  0  0  0  0  0  0  0  0  0  0
    3.5842   -1.4259    4.4646 N   0  0  0  0  0  0  0  0  0  0  0  0
    3.5945   -1.9017    5.7371 C   0  0  0  0  0  0  0  0  0  0  0  0
    2.6767   -1.4823    6.7301 C   0  0  0  0  0  0  0  0  0  0  0  0
    2.6793   -1.9268    8.0720 C   0  0  0  0  0  0  0  0  0  0  0  0
    1.7275   -1.4555    8.9837 C   0  0  0  0  0  0  0  0  0  0  0  0
    1.7591   -1.9064   10.3797 C   0  0  0  0  0  0  0  0  0  0  0  0
    2.7203   -2.4955   10.8392 O   0  0  0  0  0  0  0  0  0  0  0  0
    0.5373   -1.5994   11.2214 C   0  0  0  0  0  0  0  0  0  0  0  0
    0.5200   -1.8912   12.4065 O   0  0  0  0  0  0  0  0  0  0  0  0
    4.6673   -2.8780    6.0114 C   0  0  0  0  0  0  0  0  0  0  0  0
    4.5275   -4.2107    5.8366 C   0  0  0  0  0  0  0  0  0  0  0  0
    3.3304   -4.7507    5.3724 O   0  0  0  0  0  0  0  0  0  0  0  0
    2.9856   -6.0739    5.7971 C   0  0  1  0  0  0  0  0  0  0  0  0
    2.9214   -6.1444    7.2134 O   0  0  0  0  0  0  0  0  0  0  0  0
    2.7612   -7.4723    7.7072 C   0  0  1  0  0  0  0  0  0  0  0  0
    2.8430   -7.4306    9.2342 C   0  0  0  0  0  0  0  0  0  0  0  0
    1.8172   -6.5869    9.7530 O   0  0  0  0  0  0  0  0  0  0  0  0
    1.4601   -8.1043    7.2604 C   0  0  0  0  0  0  0  0  0  0  0  0
    0.9240   -9.0558    7.8157 O   0  0  0  0  0  0  0  0  0  0  0  0
    0.9352   -7.5843    5.9396 C   0  0  0  0  0  0  0  0  0  0  0  0
   -0.0586   -8.1052    5.4450 O   0  0  0  0  0  0  0  0  0  0  0  0
    1.6524   -6.4870    5.1823 C   0  0  0  0  0  0  0  0  0  0  0  0
    1.1977   -6.0653    4.1250 O   0  0  0  0  0  0  0  0  0  0  0  0
    5.7037   -5.1310    6.0846 C   0  0  0  0  0  0  0  0  0  0  0  0
    6.9213   -4.4331    6.6236 C   0  0  0  0  0  0  0  0  0  0  0  0
    6.9103   -3.0997    6.7990 C   0  0  0  0  0  0  0  0  0  0  0  0
    5.8407   -2.2914    6.4742 O   0  0  0  0  0  0  0  0  0  0  0  0
    7.9812   -2.4623    7.3590 N   0  0  0  0  0  0  0  0  0  0  0  0
    9.1109   -3.0978    7.8064 C   0  0  0  0  0  0  0  0  0  0  0  0
   10.0381   -2.4982    8.3380 O   0  0  0  0  0  0  0  0  0  0  0  0
    9.1485   -4.5687    7.6062 C   0  0  0  0  0  0  0  0  0  0  0  0
    8.1052   -5.1826    7.0260 C   0  0  0  0  0  0  0  0  0  0  0  0
    8.1715   -6.5360    6.8251 N   0  0  0  0  0  0  0  0  0  0  0  0
    9.2207   -7.3275    7.1867 C   0  0  0  0  0  0  0  0  0  0  0  0
    9.2083   -8.5354    6.9771 O   0  0  0  0  0  0  0  0  0  0  0  0
   10.2673   -6.7132    7.7924 N   0  0  0  0  0  0  0  0  0  0  0  0
   10.3652   -5.2926    8.0599 C   0  0  0  0  0  0  0  0  0  0  0  0
  1  2  1  0  0  0  0
  3  4  1  0  0  0  0
  3 17  1  0  0  0  0
  3  2  1  6  0  0  0
  4  5  1  0  0  0  0
  5  6  2  0  0  0  0
  5 14  1  0  0  0  0
  6  7  1  0  0  0  0
  7  8  2  0  0  0  0
  7 12  1  0  0  0  0
  8  9  1  0  0  0  0
  9 10  2  0  0  0  0
 10 11  1  0  0  0  0
 11 12  2  0  0  0  0
 11 19  1  0  0  0  0
 12 13  1  0  0  0  0
 13 14  2  0  0  0  0
 14 15  1  0  0  0  0
 15 16  2  0  0  0  0
 15 17  1  0  0  0  0
 17 18  2  0  0  0  0
 19 20  2  0  0  0  0
 19 36  1  0  0  0  0
 20 21  1  0  0  0  0
 20 33  1  0  0  0  0
 22 21  1  1  0  0  0
 22 23  1  0  0  0  0
 22 31  1  0  0  0  0
 23 24  1  0  0  0  0
 24 27  1  0  0  0  0
 24 25  1  1  0  0  0
 25 26  1  0  0  0  0
 27 28  2  0  0  0  0
 27 29  1  0  0  0  0
 29 30  2  0  0  0  0
 29 31  1  0  0  0  0
 31 32  2  0  0  0  0
 33 34  1  0  0  0  0
 34 35  2  0  0  0  0
 34 41  1  0  0  0  0
 35 36  1  0  0  0  0
 35 37  1  0  0  0  0
 37 38  1  0  0  0  0
 38 39  2  0  0  0  0
 38 40  1  0  0  0  0
 40 41  2  0  0  0  0
 40 46  1  0  0  0  0
 41 42  1  0  0  0  0
 42 43  1  0  0  0  0
 43 44  2  0  0  0  0
 43 45  1  0  0  0  0
 45 46  1  0  0  0  0
M  END
$$$$