
 OpenBabel11242000563D

 53 62  0  0  1  0  0  0  0  0999 V2000
   -4.6940  -11.7871   12.1783 O   0  0  0  0  0  0  0  0  0  0  0  0
   -5.6584  -11.5279   13.1245 C   0  0  0  0  0  0  0  0  0  0  0  0
   -6.4260  -10.4313   13.0865 C   0  0  0  0  0  0  0  0  0  0  0  0
   -6.2229   -9.5008   12.0699 O   0  0  0  0  0  0  0  0  0  0  0  0
   -7.4490   -9.1327   11.4372 C   0  0  2  0  0  0  0  0  0  0  0  0
   -7.1717   -8.3853   10.2515 O   0  0  0  0  0  0  0  0  0  0  0  0
   -7.7341   -8.8329    9.0618 C   0  0  0  0  0  0  0  0  0  0  0  0
   -7.1633   -8.5179    7.8808 C   0  0  0  0  0  0  0  0  0  0  0  0
   -7.7166   -8.8337    6.6469 O   0  0  0  0  0  0  0  0  0  0  0  0
   -8.9432   -9.4888    6.6108 C   0  0  0  0  0  0  0  0  0  0  0  0
   -9.6004   -9.8330    7.7307 C   0  0  0  0  0  0  0  0  0  0  0  0
   -9.0471   -9.5754    9.0898 C   0  0  0  0  0  0  0  0  0  0  0  0
  -10.9128  -10.5673    7.6615 C   0  0  3  0  0  0  0  0  0  0  0  0
  -11.9040   -9.7747    8.3727 N   0  0  0  0  0  0  0  0  0  0  0  0
  -13.1610  -10.2761    8.4148 C   0  0  0  0  0  0  0  0  0  0  0  0
  -13.8973  -10.2144    9.4619 N   0  0  0  0  0  0  0  0  0  0  0  0
  -13.6163  -10.7896    7.2548 N   0  0  0  0  0  0  0  0  0  0  0  0
  -12.7789  -11.4412    6.2757 C   0  0  0  0  0  0  0  0  0  0  0  0
  -11.4306  -10.7867    6.2692 C   0  0  0  0  0  0  0  0  0  0  0  0
  -10.7211  -10.3887    5.1870 C   0  0  0  0  0  0  0  0  0  0  0  0
   -9.4769   -9.7882    5.3835 N   0  0  0  0  0  0  0  0  0  0  0  0
  -11.1751  -10.5464    3.7942 C   0  0  3  0  0  0  0  0  0  0  0  0
  -10.8052   -9.5634    2.8330 N   0  0  0  0  0  0  0  0  0  0  0  0
  -11.9845   -9.5267    3.2278 N   0  0  0  0  0  0  0  0  0  0  0  0
   -5.9179   -7.7378    7.8237 C   0  0  0  0  0  0  0  0  0  0  0  0
   -6.0305   -6.3603    7.7121 C   0  0  0  0  0  0  0  0  0  0  0  0
   -4.9456   -5.5865    7.7804 N   0  3  0  0  0  0  0  0  0  0  0  0
   -5.0885   -4.2523    7.6698 F   0  0  0  0  0  0  0  0  0  0  0  0
   -3.7340   -6.0717    7.9864 N   0  0  0  0  0  0  0  0  0  0  0  0
   -3.5538   -7.3946    8.1042 C   0  0  0  0  0  0  0  0  0  0  0  0
   -4.6364   -8.2927    7.9960 C   0  0  0  0  0  0  0  0  0  0  0  0
   -4.3925   -9.6833    8.0703 C   0  0  0  0  0  0  0  0  0  0  0  0
   -3.1024  -10.1669    8.2874 C   0  0  0  0  0  0  0  0  0  0  0  0
   -2.8387  -11.6089    8.3533 C   0  0  0  0  0  0  0  0  0  0  0  0
   -3.6236  -12.4087    7.8719 O   0  0  0  0  0  0  0  0  0  0  0  0
   -1.6006  -12.0556    9.1047 C   0  0  0  0  0  0  0  0  0  0  0  0
   -1.4714  -13.1954    9.5181 O   0  0  0  0  0  0  0  0  0  0  0  0
   -0.7123  -10.9363    9.4771 C   0  0  2  0  0  0  0  0  0  0  0  0
   -0.7651   -9.7469    8.6478 O   0  0  0  0  0  0  0  0  0  0  0  0
   -2.0460   -9.2864    8.4432 C   0  0  0  0  0  0  0  0  0  0  0  0
   -2.2612   -7.8978    8.3705 C   0  0  0  0  0  0  0  0  0  0  0  0
   -1.1419   -7.0335    8.3686 N   0  0  0  0  0  0  0  0  0  0  0  0
    0.5546  -11.2864    9.9769 O   0  0  0  0  0  0  0  0  0  0  0  0
   -0.4265  -10.7912   10.9407 C   0  0  1  0  0  0  0  0  0  0  0  0
   -0.4162   -9.3427   11.2355 O   0  0  0  0  0  0  0  0  0  0  0  0
    0.3136  -10.1389   11.9795 C   0  0  0  0  0  0  0  0  0  0  0  0
    0.3539  -10.2855   13.1900 O   0  0  0  0  0  0  0  0  0  0  0  0
   -8.2430   -8.3323   12.4451 C   0  0  0  0  0  0  0  0  0  0  0  0
   -8.6020   -7.1718   12.3430 O   0  0  0  0  0  0  0  0  0  0  0  0
   -8.5612   -9.1856   13.6452 C   0  0  0  0  0  0  0  0  0  0  0  0
   -9.6983   -9.1686   14.0841 O   0  0  0  0  0  0  0  0  0  0  0  0
   -7.5096  -10.1887   14.1019 C   0  0  0  0  0  0  0  0  0  0  0  0
   -7.7018  -10.8685   15.6151 S   0  0  0  0  0  0  0  0  0  0  0  0
  1  2  1  0  0  0  0
  2  3  2  0  0  0  0
  3  4  1  0  0  0  0
  3 52  1  0  0  0  0
  4  5  1  0  0  0  0
  5  6  1  6  0  0  0
  5 48  1  0  0  0  0
  6  7  1  0  0  0  0
  7  8  2  0  0  0  0
  7 12  1  0  0  0  0
  8  9  1  0  0  0  0
  8 25  1  0  0  0  0
  9 10  1  0  0  0  0
 10 11  2  0  0  0  0
 10 21  1  0  0  0  0
 11 12  1  0  0  0  0
 11 13  1  0  0  0  0
 13 14  1  0  0  0  0
 13 19  1  0  0  0  0
 14 15  1  0  0  0  0
 15 16  2  0  0  0  0
 15 17  1  0  0  0  0
 17 18  1  0  0  0  0
 18 19  1  0  0  0  0
 19 20  2  0  0  0  0
 20 21  1  0  0  0  0
 20 22  1  0  0  0  0
 22 23  1  0  0  0  0
 22 24  1  0  0  0  0
 23 24  2  0  0  0  0
 25 26  2  0  0  0  0
 25 31  1  0  0  0  0
 26 27  1  0  0  0  0
 27 28  1  0  0  0  0
 27 29  2  0  0  0  0
 29 30  1  0  0  0  0
 30 31  2  0  0  0  0
 30 41  1  0  0  0  0
 31 32  1  0  0  0  0
 32 33  2  0  0  0  0
 33 34  1  0  0  0  0
 33 40  1  0  0  0  0
 34 35  2  0  0  0  0
 34 36  1  0  0  0  0
 36 37  2  0  0  0  0
 38 36  1  6  0  0  0
 38 39  1  0  0  0  0
 38 43  1  0  0  0  0
 38 44  1  0  0  0  0
 39 40  1  0  0  0  0
 40 41  2  0  0  0  0
 41 42  1  0  0  0  0
 44 43  1  6  0  0  0
 44 45  1  0  0  0  0
 44 46  1  0  0  0  0
 45 46  1  0  0  0  0
 46 47  2  0  0  0  0
 48 49  2  0  0  0  0
 48 50  1  0  0  0  0
 50 51  2  0  0  0  0
 50 52  1  0  0  0  0
 52 53  2  0  0  0  0
M  CHG  1  27   1
M  END
$$$$