
 OpenBabel09232009433D

 51 59  0  0  1  0  0  0  0  0999 V2000
    8.0589    4.8269   -1.4593 Br  0  0  0  0  0  0  0  0  0  0  0  0
    7.9732    2.9993   -1.7825 C   0  0  0  0  0  0  0  0  0  0  0  0
    6.8514    2.3257   -2.0708 C   0  0  0  0  0  0  0  0  0  0  0  0
    5.6176    2.9534   -2.1287 O   0  0  0  0  0  0  0  0  0  0  0  0
    4.7158    2.3874   -3.0771 C   0  0  2  0  0  0  0  0  0  0  0  0
    3.4727    3.1263   -3.1161 O   0  0  0  0  0  0  0  0  0  0  0  0
    3.5254    4.4647   -3.4792 C   0  0  0  0  0  0  0  0  0  0  0  0
    2.6162    5.3426   -3.0101 C   0  0  0  0  0  0  0  0  0  0  0  0
    2.6111    6.6917   -3.3355 O   0  0  0  0  0  0  0  0  0  0  0  0
    3.6294    7.2091   -4.1063 C   0  0  0  0  0  0  0  0  0  0  0  0
    4.5823    6.4034   -4.6975 C   0  0  0  0  0  0  0  0  0  0  0  0
    4.5892    4.9279   -4.4450 C   0  0  0  0  0  0  0  0  0  0  0  0
    5.5404    7.0401   -5.4891 C   0  0  0  0  0  0  0  0  0  0  0  0
    6.5218    6.2972   -6.1523 N   0  0  0  0  0  0  0  0  0  0  0  0
    7.5402    6.8257   -6.8772 C   0  0  0  0  0  0  0  0  0  0  0  0
    8.3724    6.0993   -7.4078 O   0  0  0  0  0  0  0  0  0  0  0  0
    7.6057    8.1719   -6.9610 N   0  0  0  0  0  0  0  0  0  0  0  0
    6.5843    9.0777   -6.5013 C   0  0  0  0  0  0  0  0  0  0  0  0
    5.5453    8.4295   -5.6334 C   0  0  0  0  0  0  0  0  0  0  0  0
    4.5509    9.1754   -4.9869 C   0  0  0  0  0  0  0  0  0  0  0  0
    3.5994    8.5513   -4.2327 N   0  0  0  0  0  0  0  0  0  0  0  0
    4.5012   10.6850   -5.0771 C   0  0  0  0  0  0  0  0  0  0  0  0
    4.3517   11.2743   -6.3788 O   0  0  0  0  0  0  0  0  0  0  0  0
    3.2535   11.2913   -5.4473 O   0  0  0  0  0  0  0  0  0  0  0  0
    1.5774    5.0170   -2.0054 C   0  0  0  0  0  0  0  0  0  0  0  0
    1.9850    5.2234   -0.7337 N   0  0  0  0  0  0  0  0  0  0  0  0
    1.0320    5.2220    0.1878 C   0  0  0  0  0  0  0  0  0  0  0  0
   -0.2632    5.0621   -0.0621 N   0  0  0  0  0  0  0  0  0  0  0  0
   -0.6098    4.8415   -1.3317 C   0  0  0  0  0  0  0  0  0  0  0  0
    0.2916    4.7611   -2.3652 N   0  3  0  0  0  0  0  0  0  0  0  0
   -0.1231    4.4403   -3.6159 C   0  0  0  0  0  0  0  0  0  0  0  0
   -1.4760    4.2465   -3.8885 C   0  0  0  0  0  0  0  0  0  0  0  0
   -2.4166    4.4253   -2.8980 C   0  0  0  0  0  0  0  0  0  0  0  0
   -1.9667    4.6952   -1.6130 C   0  0  0  0  0  0  0  0  0  0  0  0
   -3.7685    4.3982   -3.0983 O   0  0  0  0  0  0  0  0  0  0  0  0
   -4.2454    4.4668   -4.4654 C   0  0  2  0  0  0  0  0  0  0  0  0
   -3.3975    3.6211   -5.3876 C   0  0  0  0  0  0  0  0  0  0  0  0
   -3.8112    2.7754   -6.1630 O   0  0  0  0  0  0  0  0  0  0  0  0
   -1.9136    3.8556   -5.2224 C   0  0  0  0  0  0  0  0  0  0  0  0
   -1.1040    3.7095   -6.1190 O   0  0  0  0  0  0  0  0  0  0  0  0
   -4.3968    5.8784   -4.9835 C   0  0  3  0  0  0  0  0  0  0  0  0
   -4.8730    6.0073   -6.3352 O   0  0  0  0  0  0  0  0  0  0  0  0
   -4.9207    6.8347   -4.0543 O   0  0  0  0  0  0  0  0  0  0  0  0
   -3.6590    7.0190   -4.4632 C   0  0  0  0  0  0  0  0  0  0  0  0
   -2.6014    7.0822   -3.8630 O   0  0  0  0  0  0  0  0  0  0  0  0
    4.3963    0.9507   -2.6984 C   0  0  0  0  0  0  0  0  0  0  0  0
    3.2764    0.4611   -2.6715 O   0  0  0  0  0  0  0  0  0  0  0  0
    5.6342    0.1438   -2.3767 C   0  0  0  0  0  0  0  0  0  0  0  0
    5.5560   -1.0578   -2.1859 O   0  0  0  0  0  0  0  0  0  0  0  0
    6.9696    0.8561   -2.2911 C   0  0  0  0  0  0  0  0  0  0  0  0
    8.0263    0.2693   -2.4390 O   0  0  0  0  0  0  0  0  0  0  0  0
  1  2  1  0  0  0  0
  2  3  2  0  0  0  0
  3  4  1  0  0  0  0
  3 50  1  0  0  0  0
  4  5  1  0  0  0  0
  5  6  1  1  0  0  0
  5 46  1  0  0  0  0
  6  7  1  0  0  0  0
  7  8  2  0  0  0  0
  7 12  1  0  0  0  0
  8  9  1  0  0  0  0
  8 25  1  0  0  0  0
  9 10  1  0  0  0  0
 10 11  2  0  0  0  0
 10 21  1  0  0  0  0
 11 12  1  0  0  0  0
 11 13  1  0  0  0  0
 13 14  1  0  0  0  0
 13 19  2  0  0  0  0
 14 15  1  0  0  0  0
 15 16  2  0  0  0  0
 15 17  1  0  0  0  0
 17 18  1  0  0  0  0
 18 19  1  0  0  0  0
 19 20  1  0  0  0  0
 20 21  2  0  0  0  0
 20 22  1  0  0  0  0
 22 23  1  0  0  0  0
 22 24  1  0  0  0  0
 23 24  1  0  0  0  0
 25 26  2  0  0  0  0
 25 30  1  0  0  0  0
 26 27  1  0  0  0  0
 27 28  2  0  0  0  0
 28 29  1  0  0  0  0
 29 30  2  0  0  0  0
 29 34  1  0  0  0  0
 30 31  1  0  0  0  0
 31 32  2  0  0  0  0
 32 33  1  0  0  0  0
 32 39  1  0  0  0  0
 33 34  2  0  0  0  0
 33 35  1  0  0  0  0
 36 35  1  1  0  0  0
 36 37  1  0  0  0  0
 36 41  1  0  0  0  0
 37 38  2  0  0  0  0
 37 39  1  0  0  0  0
 39 40  2  0  0  0  0
 41 42  1  0  0  0  0
 41 43  1  0  0  0  0
 41 44  1  0  0  0  0
 43 44  1  0  0  0  0
 44 45  2  0  0  0  0
 46 47  2  0  0  0  0
 46 48  1  0  0  0  0
 48 49  2  0  0  0  0
 48 50  1  0  0  0  0
 50 51  2  0  0  0  0
M  CHG  1  30   1
M  END
$$$$