
 OpenBabel11262001083D

 53 61  0  0  1  0  0  0  0  0999 V2000
    7.0921    2.9815    5.7500 O   0  0  0  0  0  0  0  0  0  0  0  0
    6.5972    3.3932    4.5370 C   0  0  0  0  0  0  0  0  0  0  0  0
    5.3562    3.1115    4.1215 C   0  0  0  0  0  0  0  0  0  0  0  0
    4.5167    2.3411    4.9020 O   0  0  0  0  0  0  0  0  0  0  0  0
    3.1227    2.6025    4.7588 C   0  0  2  0  0  0  0  0  0  0  0  0
    2.3528    1.5534    5.4025 O   0  0  0  0  0  0  0  0  0  0  0  0
    2.5754    1.3210    6.7532 C   0  0  0  0  0  0  0  0  0  0  0  0
    2.4167    0.0886    7.2945 C   0  0  0  0  0  0  0  0  0  0  0  0
    2.5794   -0.1291    8.6736 O   0  0  0  0  0  0  0  0  0  0  0  0
    2.9706    0.9144    9.5205 C   0  0  0  0  0  0  0  0  0  0  0  0
    3.1335    2.1635    9.0520 C   0  0  0  0  0  0  0  0  0  0  0  0
    2.9444    2.5058    7.6093 C   0  0  0  0  0  0  0  0  0  0  0  0
    3.5533    3.3057    9.9322 C   0  0  3  0  0  0  0  0  0  0  0  0
    2.5221    4.2745    9.8976 O   0  0  0  0  0  0  0  0  0  0  0  0
    2.7896    5.4326   10.5616 C   0  0  0  0  0  0  0  0  0  0  0  0
    2.2317    6.4779   10.2767 O   0  0  0  0  0  0  0  0  0  0  0  0
    3.7351    5.3276   11.5298 O   0  0  0  0  0  0  0  0  0  0  0  0
    3.9958    4.0855   12.2076 C   0  0  0  0  0  0  0  0  0  0  0  0
    3.6899    2.8979   11.3510 C   0  0  0  0  0  0  0  0  0  0  0  0
    3.5070    1.6229   11.7651 C   0  0  0  0  0  0  0  0  0  0  0  0
    3.1824    0.6241   10.8521 O   0  3  0  0  0  0  0  0  0  0  0  0
    3.6590    1.1765   13.1713 C   0  0  0  0  0  0  0  0  0  0  0  0
    3.4451   -0.2035   13.5200 O   0  0  0  0  0  0  0  0  0  0  0  0
    4.7713    0.3585   13.5567 O   0  0  0  0  0  0  0  0  0  0  0  0
    2.0673   -1.1360    6.4873 C   0  0  0  0  0  0  0  0  0  0  0  0
    1.1936   -1.0082    5.4034 C   0  0  0  0  0  0  0  0  0  0  0  0
    0.8891   -2.0464    4.6197 N   0  3  0  0  0  0  0  0  0  0  0  0
    0.0784   -1.8531    3.5610 F   0  0  0  0  0  0  0  0  0  0  0  0
    1.3446   -3.2597    4.8428 N   0  0  0  0  0  0  0  0  0  0  0  0
    2.1558   -3.4820    5.8765 C   0  0  0  0  0  0  0  0  0  0  0  0
    2.5648   -2.4451    6.7435 C   0  0  0  0  0  0  0  0  0  0  0  0
    3.4397   -2.8010    7.7994 C   0  0  0  0  0  0  0  0  0  0  0  0
    3.8462   -4.1272    8.0160 C   0  0  0  0  0  0  0  0  0  0  0  0
    4.6269   -4.4593    9.2104 C   0  0  0  0  0  0  0  0  0  0  0  0
    4.8247   -3.6026   10.0610 O   0  0  0  0  0  0  0  0  0  0  0  0
    5.0695   -5.9000    9.3602 C   0  0  0  0  0  0  0  0  0  0  0  0
    5.4770   -6.3102   10.4355 O   0  0  0  0  0  0  0  0  0  0  0  0
    4.9770   -6.7188    8.0888 C   0  0  1  0  0  0  0  0  0  0  0  0
    3.8208   -6.4369    7.2822 O   0  0  0  0  0  0  0  0  0  0  0  0
    3.4571   -5.1283    7.1529 C   0  0  0  0  0  0  0  0  0  0  0  0
    2.6104   -4.7861    6.0987 C   0  0  0  0  0  0  0  0  0  0  0  0
    2.2056   -5.7549    5.2613 F   0  0  0  0  0  0  0  0  0  0  0  0
    6.2204   -6.5770    7.2726 C   0  0  1  0  0  0  0  0  0  0  0  0
    6.5738   -5.2290    6.8637 O   0  0  0  0  0  0  0  0  0  0  0  0
    7.3024   -7.4114    7.6617 O   0  0  0  0  0  0  0  0  0  0  0  0
    6.7745   -7.6514    6.4459 C   0  0  0  0  0  0  0  0  0  0  0  0
    7.2837   -7.5639    5.3457 O   0  0  0  0  0  0  0  0  0  0  0  0
    2.6976    2.6474    3.2953 C   0  0  3  0  0  0  0  0  0  0  0  0
    3.4290    3.7580    2.5783 C   0  0  3  0  0  0  0  0  0  0  0  0
    4.9172    3.6623    2.7961 C   0  0  0  0  0  0  0  0  0  0  0  0
    5.7336    4.1116    1.9958 O   0  0  0  0  0  0  0  0  0  0  0  0
    3.0697    3.7366    1.2636 F   0  0  0  0  0  0  0  0  0  0  0  0
    2.9838    1.4370    2.7274 F   0  0  0  0  0  0  0  0  0  0  0  0
  1  2  1  0  0  0  0
  2  3  2  0  0  0  0
  3  4  1  0  0  0  0
  3 50  1  0  0  0  0
  4  5  1  0  0  0  0
  5  6  1  1  0  0  0
  5 48  1  0  0  0  0
  6  7  1  0  0  0  0
  7  8  2  0  0  0  0
  7 12  1  0  0  0  0
  8  9  1  0  0  0  0
  8 25  1  0  0  0  0
  9 10  1  0  0  0  0
 10 11  2  0  0  0  0
 10 21  1  0  0  0  0
 11 12  1  0  0  0  0
 11 13  1  0  0  0  0
 13 14  1  0  0  0  0
 13 19  1  0  0  0  0
 14 15  1  0  0  0  0
 15 16  2  0  0  0  0
 15 17  1  0  0  0  0
 17 18  1  0  0  0  0
 18 19  1  0  0  0  0
 19 20  2  0  0  0  0
 20 21  1  0  0  0  0
 20 22  1  0  0  0  0
 22 23  1  0  0  0  0
 22 24  1  0  0  0  0
 23 24  1  0  0  0  0
 25 26  2  0  0  0  0
 25 31  1  0  0  0  0
 26 27  1  0  0  0  0
 27 28  1  0  0  0  0
 27 29  2  0  0  0  0
 29 30  1  0  0  0  0
 30 31  2  0  0  0  0
 30 41  1  0  0  0  0
 31 32  1  0  0  0  0
 32 33  2  0  0  0  0
 33 34  1  0  0  0  0
 33 40  1  0  0  0  0
 34 35  2  0  0  0  0
 34 36  1  0  0  0  0
 36 37  2  0  0  0  0
 38 36  1  1  0  0  0
 38 39  1  0  0  0  0
 38 43  1  0  0  0  0
 39 40  1  0  0  0  0
 40 41  2  0  0  0  0
 41 42  1  0  0  0  0
 43 44  1  6  0  0  0
 43 45  1  0  0  0  0
 43 46  1  0  0  0  0
 45 46  1  0  0  0  0
 46 47  2  0  0  0  0
 48 49  1  0  0  0  0
 48 53  1  0  0  0  0
 49 50  1  0  0  0  0
 49 52  1  0  0  0  0
 50 51  2  0  0  0  0
M  CHG  2  21   1  27   1
M  END
$$$$