
 OpenBabel11212021263D

 53 61  0  0  1  0  0  0  0  0999 V2000
    7.2764   -3.0912    4.6374 O   0  0  0  0  0  0  0  0  0  0  0  0
    6.9287   -1.7624    4.6485 C   0  0  0  0  0  0  0  0  0  0  0  0
    5.7881   -1.2923    4.1252 C   0  0  0  0  0  0  0  0  0  0  0  0
    4.8957   -2.1322    3.4778 O   0  0  0  0  0  0  0  0  0  0  0  0
    3.5237   -1.8262    3.7323 C   0  0  2  0  0  0  0  0  0  0  0  0
    2.6323   -2.8101    3.1578 O   0  0  0  0  0  0  0  0  0  0  0  0
    2.7217   -4.1293    3.5925 C   0  0  0  0  0  0  0  0  0  0  0  0
    1.9614   -5.1162    3.0533 C   0  0  0  0  0  0  0  0  0  0  0  0
    2.1271   -6.4610    3.4438 O   0  0  0  0  0  0  0  0  0  0  0  0
    2.9090   -6.7878    4.5558 C   0  0  0  0  0  0  0  0  0  0  0  0
    3.6090   -5.8440    5.2015 C   0  0  0  0  0  0  0  0  0  0  0  0
    3.6668   -4.4342    4.7263 C   0  0  0  0  0  0  0  0  0  0  0  0
    4.3770   -6.1194    6.4567 C   0  0  3  0  0  0  0  0  0  0  0  0
    3.7473   -5.3706    7.4792 O   0  0  0  0  0  0  0  0  0  0  0  0
    4.3886   -5.5754    8.7270 C   0  0  1  0  0  0  0  0  0  0  0  0
    3.7172   -4.8029    9.6857 O   0  0  0  0  0  0  0  0  0  0  0  0
    4.3132   -6.9357    9.1093 O   0  0  0  0  0  0  0  0  0  0  0  0
    4.9756   -7.7759    8.1720 C   0  0  0  0  0  0  0  0  0  0  0  0
    4.3150   -7.5626    6.8409 C   0  0  0  0  0  0  0  0  0  0  0  0
    3.6437   -8.4810    6.1094 C   0  0  0  0  0  0  0  0  0  0  0  0
    2.9345   -8.1005    4.9758 O   0  3  0  0  0  0  0  0  0  0  0  0
    3.5409   -9.9115    6.4782 C   0  0  0  0  0  0  0  0  0  0  0  0
    2.4522  -10.3951    7.2714 O   0  0  0  0  0  0  0  0  0  0  0  0
    2.5349  -10.7449    5.8758 O   0  0  0  0  0  0  0  0  0  0  0  0
    0.9217   -4.8955    1.9838 C   0  0  0  0  0  0  0  0  0  0  0  0
    1.1811   -3.8774    1.1350 N   0  0  0  0  0  0  0  0  0  0  0  0
    0.3323   -3.6027    0.1554 N   0  3  0  0  0  0  0  0  0  0  0  0
    0.5872   -2.5425   -0.6360 F   0  0  0  0  0  0  0  0  0  0  0  0
   -0.7525   -4.3462   -0.0869 C   0  0  0  0  0  0  0  0  0  0  0  0
   -1.0689   -5.4269    0.7296 C   0  0  0  0  0  0  0  0  0  0  0  0
   -0.2428   -5.6980    1.8342 C   0  0  0  0  0  0  0  0  0  0  0  0
   -0.6752   -6.7388    2.6951 C   0  0  0  0  0  0  0  0  0  0  0  0
   -1.7992   -7.5358    2.4062 C   0  0  0  0  0  0  0  0  0  0  0  0
   -2.1564   -8.6285    3.3156 C   0  0  0  0  0  0  0  0  0  0  0  0
   -1.4531   -8.8715    4.2855 O   0  0  0  0  0  0  0  0  0  0  0  0
   -3.3855   -9.4350    2.9586 C   0  0  0  0  0  0  0  0  0  0  0  0
   -3.9583  -10.1030    3.8039 O   0  0  0  0  0  0  0  0  0  0  0  0
   -3.7475   -9.3793    1.4894 C   0  0  1  0  0  0  0  0  0  0  0  0
   -3.6234   -8.0734    0.8951 O   0  0  0  0  0  0  0  0  0  0  0  0
   -2.5524   -7.3138    1.2692 C   0  0  0  0  0  0  0  0  0  0  0  0
   -2.1976   -6.2326    0.4614 C   0  0  0  0  0  0  0  0  0  0  0  0
   -2.9324   -5.9594   -0.6273 F   0  0  0  0  0  0  0  0  0  0  0  0
   -2.9360  -10.3739    0.7233 C   0  0  1  0  0  0  0  0  0  0  0  0
   -1.4966  -10.1590    0.6964 O   0  0  0  0  0  0  0  0  0  0  0  0
   -3.3562  -11.7265    0.8523 O   0  0  0  0  0  0  0  0  0  0  0  0
   -3.4530  -11.1907   -0.3895 C   0  0  0  0  0  0  0  0  0  0  0  0
   -2.8729  -11.4830   -1.3990 O   0  0  0  0  0  0  0  0  0  0  0  0
    3.2409   -0.4637    3.1354 C   0  0  0  0  0  0  0  0  0  0  0  0
    2.3858   -0.2148    2.2986 O   0  0  0  0  0  0  0  0  0  0  0  0
    4.1547    0.5927    3.7118 C   0  0  0  0  0  0  0  0  0  0  0  0
    3.7571    1.7394    3.8231 O   0  0  0  0  0  0  0  0  0  0  0  0
    5.5166    0.1725    4.2417 C   0  0  0  0  0  0  0  0  0  0  0  0
    6.2849    0.9640    4.7584 O   0  0  0  0  0  0  0  0  0  0  0  0
  1  2  1  0  0  0  0
  2  3  2  0  0  0  0
  3  4  1  0  0  0  0
  3 52  1  0  0  0  0
  4  5  1  0  0  0  0
  5  6  1  6  0  0  0
  5 48  1  0  0  0  0
  6  7  1  0  0  0  0
  7  8  2  0  0  0  0
  7 12  1  0  0  0  0
  8  9  1  0  0  0  0
  8 25  1  0  0  0  0
  9 10  1  0  0  0  0
 10 11  2  0  0  0  0
 10 21  1  0  0  0  0
 11 12  1  0  0  0  0
 11 13  1  0  0  0  0
 13 14  1  0  0  0  0
 13 19  1  0  0  0  0
 14 15  1  0  0  0  0
 15 16  1  1  0  0  0
 15 17  1  0  0  0  0
 17 18  1  0  0  0  0
 18 19  1  0  0  0  0
 19 20  2  0  0  0  0
 20 21  1  0  0  0  0
 20 22  1  0  0  0  0
 22 23  1  0  0  0  0
 22 24  1  0  0  0  0
 23 24  1  0  0  0  0
 25 26  2  0  0  0  0
 25 31  1  0  0  0  0
 26 27  1  0  0  0  0
 27 28  1  0  0  0  0
 27 29  2  0  0  0  0
 29 30  1  0  0  0  0
 30 31  2  0  0  0  0
 30 41  1  0  0  0  0
 31 32  1  0  0  0  0
 32 33  2  0  0  0  0
 33 34  1  0  0  0  0
 33 40  1  0  0  0  0
 34 35  2  0  0  0  0
 34 36  1  0  0  0  0
 36 37  2  0  0  0  0
 38 36  1  1  0  0  0
 38 39  1  0  0  0  0
 38 43  1  0  0  0  0
 39 40  1  0  0  0  0
 40 41  2  0  0  0  0
 41 42  1  0  0  0  0
 43 44  1  1  0  0  0
 43 45  1  0  0  0  0
 43 46  1  0  0  0  0
 45 46  1  0  0  0  0
 46 47  2  0  0  0  0
 48 49  2  0  0  0  0
 48 50  1  0  0  0  0
 50 51  2  0  0  0  0
 50 52  1  0  0  0  0
 52 53  2  0  0  0  0
M  CHG  2  21   1  27   1
M  END
$$$$