
 OpenBabel05082115373D

 52 62  0  0  1  0  0  0  0  0999 V2000
   -0.2850    2.9114    1.5070 F   0  0  0  0  0  0  0  0  0  0  0  0
    0.6454    2.5612    0.6087 C   0  0  0  0  0  0  0  0  0  0  0  0
    1.8457    3.2755    0.5611 C   0  0  0  0  0  0  0  0  0  0  0  0
    2.8520    2.9676   -0.3792 C   0  0  0  0  0  0  0  0  0  0  0  0
    2.5904    1.8698   -1.2282 C   0  0  0  0  0  0  0  0  0  0  0  0
    1.4031    1.1377   -1.1500 C   0  0  0  0  0  0  0  0  0  0  0  0
    0.4239    1.4910   -0.2403 C   0  0  0  0  0  0  0  0  0  0  0  0
   -0.7180    0.7931   -0.1666 F   0  0  0  0  0  0  0  0  0  0  0  0
    1.2226    0.0738   -1.9466 F   0  0  0  0  0  0  0  0  0  0  0  0
    3.5039    1.4753   -2.1298 F   0  0  0  0  0  0  0  0  0  0  0  0
    4.1563    3.6998   -0.3789 C   0  0  0  0  0  0  0  0  0  0  0  0
    5.3432    2.9770   -0.5932 C   0  0  0  0  0  0  0  0  0  0  0  0
    6.6090    3.5561   -0.4563 C   0  0  0  0  0  0  0  0  0  0  0  0
    6.7705    4.8664    0.0049 C   0  0  0  0  0  0  0  0  0  0  0  0
    5.5849    5.6217    0.2419 C   0  0  0  0  0  0  0  0  0  0  0  0
    4.3156    5.0726   -0.0593 C   0  0  0  0  0  0  0  0  0  0  0  0
    3.1869    6.0481   -0.1753 C   0  0  0  0  0  0  0  0  0  0  0  0
    2.3113    5.8525   -1.0182 O   0  0  0  0  0  0  0  0  0  0  0  0
    3.1441    7.2398    0.8153 C   0  0  1  0  0  0  0  0  0  0  0  0
    4.5422    7.7335    1.2532 C   0  0  2  0  0  0  0  0  0  0  0  0
    5.7080    6.8983    0.7915 C   0  0  0  0  0  0  0  0  0  0  0  0
    6.9708    7.4079    1.0746 C   0  0  0  0  0  0  0  0  0  0  0  0
    8.1237    6.6909    0.8154 C   0  0  0  0  0  0  0  0  0  0  0  0
    8.0760    5.4104    0.2406 C   0  0  0  0  0  0  0  0  0  0  0  0
    9.4253    4.6133   -0.1466 C   0  0  0  0  0  0  0  0  0  0  0  0
    9.9790    3.6162    1.2305 C   0  0  0  0  0  0  0  0  0  0  0  0
   10.7876    4.5282    0.9739 C   0  0  0  0  0  0  0  0  0  0  0  0
   10.9436    5.4996    0.1920 C   0  0  0  0  0  0  0  0  0  0  0  0
    7.0985    8.6473    1.6391 O   0  0  0  0  0  0  0  0  0  0  0  0
    6.3068    9.6005    0.9294 C   0  0  2  0  0  0  0  0  0  0  0  0
    4.8145    9.1989    0.8841 C   0  0  1  0  0  0  0  0  0  0  0  0
    4.1108    9.5293   -0.3983 C   0  0  0  0  0  0  0  0  0  0  0  0
    2.7706    9.1626   -0.4781 C   0  0  0  0  0  0  0  0  0  0  0  0
    2.2421    8.2851    0.4249 O   0  0  0  0  0  0  0  0  0  0  0  0
    1.9464    9.7232   -1.4409 C   0  0  0  0  0  0  0  0  0  0  0  0
    2.5026   10.5510   -2.4167 C   0  0  0  0  0  0  0  0  0  0  0  0
    3.8904   10.7676   -2.4627 C   0  0  0  0  0  0  0  0  0  0  0  0
    4.7056   10.2611   -1.4328 C   0  0  0  0  0  0  0  0  0  0  0  0
    6.0875   10.4746   -1.5024 C   0  0  0  0  0  0  0  0  0  0  0  0
    6.9557    9.9341   -0.4378 C   0  0  0  0  0  0  0  0  0  0  0  0
    8.1665    9.8351   -0.6430 O   0  0  0  0  0  0  0  0  0  0  0  0
    6.6727   11.1161   -2.6064 C   0  0  0  0  0  0  0  0  0  0  0  0
    5.8786   11.5642   -3.6587 C   0  0  0  0  0  0  0  0  0  0  0  0
    4.4867   11.4573   -3.5302 C   0  0  0  0  0  0  0  0  0  0  0  0
    6.6044   12.3917   -5.0755 S   0  3  0  0  0  0  0  0  0  0  0  0
    5.4959   11.9271   -6.4299 C   0  0  0  0  0  0  0  0  0  0  0  0
    5.3405   10.4300   -6.6419 C   0  0  0  0  0  0  0  0  0  0  0  0
    6.6504    9.7943   -7.0745 C   0  0  0  0  0  0  0  0  0  0  0  0
    7.7215    9.9259   -5.9992 C   0  0  0  0  0  0  0  0  0  0  0  0
    8.0111   11.3533   -5.5555 C   0  0  0  0  0  0  0  0  0  0  0  0
    6.4036   10.8329    1.6637 O   0  0  0  0  0  0  0  0  0  0  0  0
    2.5191    6.6337    1.9669 O   0  0  0  0  0  0  0  0  0  0  0  0
  1  2  1  0  0  0  0
  2  3  2  0  0  0  0
  2  7  1  0  0  0  0
  3  4  1  0  0  0  0
  4  5  2  0  0  0  0
  4 11  1  0  0  0  0
  5  6  1  0  0  0  0
  5 10  1  0  0  0  0
  6  7  2  0  0  0  0
  6  9  1  0  0  0  0
  7  8  1  0  0  0  0
 11 12  2  0  0  0  0
 11 16  1  0  0  0  0
 12 13  1  0  0  0  0
 13 14  2  0  0  0  0
 14 15  1  0  0  0  0
 14 24  1  0  0  0  0
 15 16  2  0  0  0  0
 15 21  1  0  0  0  0
 16 17  1  0  0  0  0
 17 19  1  0  0  0  0
 17 18  2  0  0  0  0
 19 20  1  0  0  0  0
 19 34  1  0  0  0  0
 19 52  1  1  0  0  0
 20 21  1  1  0  0  0
 20 31  1  0  0  0  0
 21 22  2  0  0  0  0
 22 23  1  0  0  0  0
 22 29  1  0  0  0  0
 23 24  2  0  0  0  0
 24 25  1  0  0  0  0
 25 26  1  0  0  0  0
 25 28  1  0  0  0  0
 26 27  2  0  0  0  0
 27 28  2  0  0  0  0
 29 30  1  0  0  0  0
 30 31  1  0  0  0  0
 30 40  1  0  0  0  0
 30 51  1  1  0  0  0
 31 32  1  6  0  0  0
 32 33  2  0  0  0  0
 32 38  1  0  0  0  0
 33 34  1  0  0  0  0
 33 35  1  0  0  0  0
 35 36  2  0  0  0  0
 36 37  1  0  0  0  0
 37 38  2  0  0  0  0
 37 44  1  0  0  0  0
 38 39  1  0  0  0  0
 39 40  1  0  0  0  0
 39 42  2  0  0  0  0
 40 41  2  0  0  0  0
 42 43  1  0  0  0  0
 43 44  2  0  0  0  0
 43 45  1  0  0  0  0
 45 46  1  0  0  0  0
 45 50  1  0  0  0  0
 46 47  1  0  0  0  0
 47 48  1  0  0  0  0
 48 49  1  0  0  0  0
 49 50  1  0  0  0  0
M  CHG  1  45   1
M  END
$$$$