
 OpenBabel10202008413D

 51 59  0  0  1  0  0  0  0  0999 V2000
   -0.5963    5.2908   -9.3262 O   0  0  0  0  0  0  0  0  0  0  0  0
   -1.2421    4.1215   -9.6371 C   0  0  0  0  0  0  0  0  0  0  0  0
   -2.3892    3.7545   -9.0555 C   0  0  0  0  0  0  0  0  0  0  0  0
   -2.9709    4.5212   -8.0626 O   0  0  0  0  0  0  0  0  0  0  0  0
   -4.3557    4.7559   -8.3255 C   0  0  2  0  0  0  0  0  0  0  0  0
   -4.8876    5.7256   -7.4181 O   0  0  0  0  0  0  0  0  0  0  0  0
   -4.2887    6.9816   -7.4305 C   0  0  0  0  0  0  0  0  0  0  0  0
   -4.2895    7.7566   -6.3256 C   0  0  0  0  0  0  0  0  0  0  0  0
   -3.7098    9.0175   -6.2693 O   0  0  0  0  0  0  0  0  0  0  0  0
   -3.1018    9.5327   -7.4005 C   0  0  0  0  0  0  0  0  0  0  0  0
   -3.0850    8.8582   -8.5604 C   0  0  0  0  0  0  0  0  0  0  0  0
   -3.6844    7.5032   -8.7153 C   0  0  0  0  0  0  0  0  0  0  0  0
   -2.4157    9.4926   -9.7293 C   0  0  0  0  0  0  0  0  0  0  0  0
   -2.3579    8.8896  -10.8715 N   0  0  0  0  0  0  0  0  0  0  0  0
   -1.7268    9.5136  -11.9304 C   0  0  0  0  0  0  0  0  0  0  0  0
   -1.6628    8.9135  -12.9956 O   0  0  0  0  0  0  0  0  0  0  0  0
   -1.1616   10.7718  -11.8493 N   0  0  0  0  0  0  0  0  0  0  0  0
   -1.2081   11.3970  -10.7246 C   0  0  0  0  0  0  0  0  0  0  0  0
   -1.8248   10.8336   -9.5261 C   0  0  0  0  0  0  0  0  0  0  0  0
   -1.8832   11.4244   -8.3166 C   0  0  0  0  0  0  0  0  0  0  0  0
   -2.5107   10.7623   -7.2737 N   0  0  0  0  0  0  0  0  0  0  0  0
   -1.3150   12.7539   -7.9985 C   0  0  0  0  0  0  0  0  0  0  0  0
   -2.0653   13.9601   -8.2013 O   0  0  0  0  0  0  0  0  0  0  0  0
   -1.7569   13.5200   -6.8642 O   0  0  0  0  0  0  0  0  0  0  0  0
   -4.9067    7.3469   -5.0565 C   0  0  0  0  0  0  0  0  0  0  0  0
   -6.1936    7.7299   -4.9163 N   0  0  0  0  0  0  0  0  0  0  0  0
   -6.7809    7.3862   -3.7690 C   0  0  0  0  0  0  0  0  0  0  0  0
   -6.2042    6.7247   -2.7567 N   0  0  0  0  0  0  0  0  0  0  0  0
   -4.9268    6.3654   -2.9115 C   0  0  0  0  0  0  0  0  0  0  0  0
   -4.1910    6.6537   -4.0693 C   0  0  0  0  0  0  0  0  0  0  0  0
   -2.8315    6.2574   -4.1567 C   0  0  0  0  0  0  0  0  0  0  0  0
   -2.2334    5.5695   -3.1008 C   0  0  0  0  0  0  0  0  0  0  0  0
   -2.9717    5.2626   -1.9673 C   0  0  0  0  0  0  0  0  0  0  0  0
   -4.3010    5.6789   -1.8775 C   0  0  0  0  0  0  0  0  0  0  0  0
   -2.4710    4.5867   -0.8904 O   0  0  0  0  0  0  0  0  0  0  0  0
   -1.3729    3.7084   -1.1672 C   0  0  2  0  0  0  0  0  0  0  0  0
   -0.3010    4.3178   -2.0315 C   0  0  0  0  0  0  0  0  0  0  0  0
    0.8922    4.0885   -1.8963 O   0  0  0  0  0  0  0  0  0  0  0  0
   -0.8200    5.1761   -3.1663 C   0  0  0  0  0  0  0  0  0  0  0  0
   -0.0956    5.5125   -4.0885 O   0  0  0  0  0  0  0  0  0  0  0  0
   -1.8579    2.4323   -1.7689 C   0  0  2  0  0  0  0  0  0  0  0  0
   -2.2973    2.4996   -3.0901 F   0  0  0  0  0  0  0  0  0  0  0  0
   -2.6820    1.6581   -0.8695 O   0  0  0  0  0  0  0  0  0  0  0  0
   -1.5187    1.1229   -1.2631 C   0  0  0  0  0  0  0  0  0  0  0  0
   -1.2658    0.0577   -1.7810 O   0  0  0  0  0  0  0  0  0  0  0  0
   -5.1346    3.4507   -8.2114 C   0  0  0  0  0  0  0  0  0  0  0  0
   -6.2789    3.3302   -7.7983 O   0  0  0  0  0  0  0  0  0  0  0  0
   -4.3777    2.2639   -8.7714 C   0  0  0  0  0  0  0  0  0  0  0  0
   -4.8084    1.1293   -8.6411 O   0  0  0  0  0  0  0  0  0  0  0  0
   -3.0682    2.5076   -9.4971 C   0  0  0  0  0  0  0  0  0  0  0  0
   -2.6717    1.7814  -10.3912 O   0  0  0  0  0  0  0  0  0  0  0  0
  1  2  1  0  0  0  0
  2  3  2  0  0  0  0
  3  4  1  0  0  0  0
  3 50  1  0  0  0  0
  4  5  1  0  0  0  0
  5  6  1  1  0  0  0
  5 46  1  0  0  0  0
  6  7  1  0  0  0  0
  7  8  2  0  0  0  0
  7 12  1  0  0  0  0
  8  9  1  0  0  0  0
  8 25  1  0  0  0  0
  9 10  1  0  0  0  0
 10 11  2  0  0  0  0
 10 21  1  0  0  0  0
 11 12  1  0  0  0  0
 11 13  1  0  0  0  0
 13 14  2  0  0  0  0
 13 19  1  0  0  0  0
 14 15  1  0  0  0  0
 15 16  2  0  0  0  0
 15 17  1  0  0  0  0
 17 18  2  0  0  0  0
 18 19  1  0  0  0  0
 19 20  2  0  0  0  0
 20 21  1  0  0  0  0
 20 22  1  0  0  0  0
 22 23  1  0  0  0  0
 22 24  1  0  0  0  0
 23 24  1  0  0  0  0
 25 26  2  0  0  0  0
 25 30  1  0  0  0  0
 26 27  1  0  0  0  0
 27 28  2  0  0  0  0
 28 29  1  0  0  0  0
 29 30  2  0  0  0  0
 29 34  1  0  0  0  0
 30 31  1  0  0  0  0
 31 32  2  0  0  0  0
 32 33  1  0  0  0  0
 32 39  1  0  0  0  0
 33 34  2  0  0  0  0
 33 35  1  0  0  0  0
 36 35  1  6  0  0  0
 36 37  1  0  0  0  0
 37 38  2  0  0  0  0
 37 39  1  0  0  0  0
 39 40  2  0  0  0  0
 41 43  1  0  0  0  0
 41 44  1  0  0  0  0
 41 36  1  0  0  0  0
 41 42  1  6  0  0  0
 43 44  1  0  0  0  0
 44 45  2  0  0  0  0
 46 47  2  0  0  0  0
 46 48  1  0  0  0  0
 48 49  2  0  0  0  0
 48 50  1  0  0  0  0
 50 51  2  0  0  0  0
M  END
$$$$