
 OpenBabel11182016393D

 52 60  0  0  1  0  0  0  0  0999 V2000
   -0.8968   -1.7441   -4.4895 O   0  0  0  0  0  0  0  0  0  0  0  0
   -0.3317   -0.7990   -3.6734 C   0  0  0  0  0  0  0  0  0  0  0  0
    0.5664   -1.1077   -2.7309 C   0  0  0  0  0  0  0  0  0  0  0  0
    0.9344   -2.4231   -2.5111 O   0  0  0  0  0  0  0  0  0  0  0  0
    2.3033   -2.5872   -2.1418 C   0  0  2  0  0  0  0  0  0  0  0  0
    2.6581   -3.9677   -2.0507 O   0  0  0  0  0  0  0  0  0  0  0  0
    2.5204   -4.7302   -3.2046 C   0  0  0  0  0  0  0  0  0  0  0  0
    2.2307   -6.0449   -3.1238 C   0  0  0  0  0  0  0  0  0  0  0  0
    2.1254   -6.8769   -4.2275 O   0  0  0  0  0  0  0  0  0  0  0  0
    2.4188   -6.3682   -5.4806 C   0  0  0  0  0  0  0  0  0  0  0  0
    2.7496   -5.0798   -5.6773 C   0  0  0  0  0  0  0  0  0  0  0  0
    2.7902   -4.0962   -4.5482 C   0  0  0  0  0  0  0  0  0  0  0  0
    3.0597   -4.5741   -7.0673 C   0  0  3  0  0  0  0  0  0  0  0  0
    4.3679   -4.0029   -7.0329 O   0  0  0  0  0  0  0  0  0  0  0  0
    5.0960   -3.8003   -8.1585 C   0  0  0  0  0  0  0  0  0  0  0  0
    6.1496   -3.1776   -8.1227 O   0  0  0  0  0  0  0  0  0  0  0  0
    4.6430   -4.3454   -9.3132 O   0  0  0  0  0  0  0  0  0  0  0  0
    3.4240   -5.0671   -9.4187 C   0  0  3  0  0  0  0  0  0  0  0  0
    3.0191   -5.6290   -8.1173 C   0  0  0  0  0  0  0  0  0  0  0  0
    2.6641   -6.9043   -7.8446 C   0  0  0  0  0  0  0  0  0  0  0  0
    2.3662   -7.2425   -6.5355 N   0  0  0  0  0  0  0  0  0  0  0  0
    2.5749   -7.9949   -8.8399 C   0  0  0  0  0  0  0  0  0  0  0  0
    1.3585   -8.7345   -9.0393 O   0  0  0  0  0  0  0  0  0  0  0  0
    1.8454   -7.8554  -10.0704 O   0  0  0  0  0  0  0  0  0  0  0  0
    2.4035   -4.1969   -9.8737 O   0  0  0  0  0  0  0  0  0  0  0  0
    2.0166   -6.7238   -1.8392 C   0  0  0  0  0  0  0  0  0  0  0  0
    3.1144   -7.2958   -1.1982 C   0  0  0  0  0  0  0  0  0  0  0  0
    3.0664   -7.8984    0.0100 N   0  0  0  0  0  0  0  0  0  0  0  0
    1.8665   -7.9063    0.6289 C   0  0  0  0  0  0  0  0  0  0  0  0
    0.6939   -7.3661    0.0948 C   0  0  0  0  0  0  0  0  0  0  0  0
    0.7617   -6.7759   -1.1889 C   0  0  0  0  0  0  0  0  0  0  0  0
   -0.4314   -6.2645   -1.7464 C   0  0  0  0  0  0  0  0  0  0  0  0
   -1.6301   -6.2974   -1.0272 C   0  0  0  0  0  0  0  0  0  0  0  0
   -1.6707   -6.8236    0.2566 C   0  0  0  0  0  0  0  0  0  0  0  0
   -0.5211   -7.3867    0.8050 C   0  0  0  0  0  0  0  0  0  0  0  0
   -2.7972   -6.8548    1.0266 O   0  0  0  0  0  0  0  0  0  0  0  0
   -3.7367   -5.8030    0.7735 C   0  0  2  0  0  0  0  0  0  0  0  0
   -4.0302   -5.5458   -0.6848 C   0  0  0  0  0  0  0  0  0  0  0  0
   -5.0681   -5.0313   -1.0808 O   0  0  0  0  0  0  0  0  0  0  0  0
   -2.8641   -5.7713   -1.6202 C   0  0  0  0  0  0  0  0  0  0  0  0
   -2.9484   -5.4822   -2.8032 O   0  0  0  0  0  0  0  0  0  0  0  0
   -3.3503   -4.5519    1.5119 C   0  0  1  0  0  0  0  0  0  0  0  0
   -3.1584   -4.6958    2.9397 O   0  0  0  0  0  0  0  0  0  0  0  0
   -2.4046   -3.7211    0.8352 O   0  0  0  0  0  0  0  0  0  0  0  0
   -3.6251   -3.1896    1.0525 C   0  0  0  0  0  0  0  0  0  0  0  0
   -3.9153   -2.1901    1.6805 O   0  0  0  0  0  0  0  0  0  0  0  0
    2.5228   -1.9094   -0.7999 C   0  0  0  0  0  0  0  0  0  0  0  0
    3.0076   -2.4056    0.2053 O   0  0  0  0  0  0  0  0  0  0  0  0
    2.0885   -0.4651   -0.8242 C   0  0  0  0  0  0  0  0  0  0  0  0
    2.5346    0.3274   -0.0096 O   0  0  0  0  0  0  0  0  0  0  0  0
    1.1340   -0.0023   -1.9078 C   0  0  0  0  0  0  0  0  0  0  0  0
    0.8987    1.1796   -2.0967 O   0  0  0  0  0  0  0  0  0  0  0  0
  1  2  1  0  0  0  0
  2  3  2  0  0  0  0
  3  4  1  0  0  0  0
  3 51  1  0  0  0  0
  4  5  1  0  0  0  0
  5  6  1  1  0  0  0
  5 47  1  0  0  0  0
  6  7  1  0  0  0  0
  7  8  2  0  0  0  0
  7 12  1  0  0  0  0
  8  9  1  0  0  0  0
  8 26  1  0  0  0  0
  9 10  1  0  0  0  0
 10 11  2  0  0  0  0
 10 21  1  0  0  0  0
 11 12  1  0  0  0  0
 11 13  1  0  0  0  0
 13 14  1  0  0  0  0
 13 19  1  0  0  0  0
 14 15  1  0  0  0  0
 15 16  2  0  0  0  0
 15 17  1  0  0  0  0
 17 18  1  0  0  0  0
 18 19  1  0  0  0  0
 18 25  1  0  0  0  0
 19 20  2  0  0  0  0
 20 21  1  0  0  0  0
 20 22  1  0  0  0  0
 22 23  1  0  0  0  0
 22 24  1  0  0  0  0
 23 24  1  0  0  0  0
 26 27  2  0  0  0  0
 26 31  1  0  0  0  0
 27 28  1  0  0  0  0
 28 29  2  0  0  0  0
 29 30  1  0  0  0  0
 30 31  2  0  0  0  0
 30 35  1  0  0  0  0
 31 32  1  0  0  0  0
 32 33  2  0  0  0  0
 33 34  1  0  0  0  0
 33 40  1  0  0  0  0
 34 35  2  0  0  0  0
 34 36  1  0  0  0  0
 37 36  1  6  0  0  0
 37 38  1  0  0  0  0
 37 42  1  0  0  0  0
 38 39  2  0  0  0  0
 38 40  1  0  0  0  0
 40 41  2  0  0  0  0
 42 43  1  1  0  0  0
 42 44  1  0  0  0  0
 42 45  1  0  0  0  0
 44 45  1  0  0  0  0
 45 46  2  0  0  0  0
 47 48  2  0  0  0  0
 47 49  1  0  0  0  0
 49 50  2  0  0  0  0
 49 51  1  0  0  0  0
 51 52  2  0  0  0  0
M  END
$$$$