
 OpenBabel11252003023D

 54 63  0  0  1  0  0  0  0  0999 V2000
  -11.1586   -8.3941   -3.8153 O   0  0  0  0  0  0  0  0  0  0  0  0
  -12.0412   -7.3980   -3.4707 C   0  0  0  0  0  0  0  0  0  0  0  0
  -11.7259   -6.0975   -3.5140 C   0  0  0  0  0  0  0  0  0  0  0  0
  -10.4541   -5.7004   -3.8898 O   0  0  0  0  0  0  0  0  0  0  0  0
  -10.4125   -4.4608   -4.5966 C   0  0  2  0  0  0  0  0  0  0  0  0
   -9.0702   -4.1726   -5.0610 O   0  0  0  0  0  0  0  0  0  0  0  0
   -8.4319   -5.2059   -5.7361 C   0  0  0  0  0  0  0  0  0  0  0  0
   -7.0980   -5.4089   -5.6353 C   0  0  0  0  0  0  0  0  0  0  0  0
   -6.4591   -6.4351   -6.3591 O   0  0  0  0  0  0  0  0  0  0  0  0
   -7.1730   -7.2211   -7.2668 C   0  0  0  0  0  0  0  0  0  0  0  0
   -8.4882   -7.0346   -7.4701 C   0  0  0  0  0  0  0  0  0  0  0  0
   -9.2757   -6.0322   -6.6849 C   0  0  0  0  0  0  0  0  0  0  0  0
   -9.2666   -7.8416   -8.4761 C   0  0  3  0  0  0  0  0  0  0  0  0
   -9.7659   -6.9479   -9.4576 O   0  0  0  0  0  0  0  0  0  0  0  0
  -10.5113   -7.5149  -10.4499 C   0  0  0  0  0  0  0  0  0  0  0  0
  -11.2121   -6.8505  -11.1918 O   0  0  0  0  0  0  0  0  0  0  0  0
  -10.4376   -8.8692  -10.5045 O   0  0  0  0  0  0  0  0  0  0  0  0
   -9.1711   -9.4728  -10.2887 C   0  0  3  0  0  0  0  0  0  0  0  0
   -8.4002   -8.7890   -9.2138 C   0  0  0  0  0  0  0  0  0  0  0  0
   -7.0840   -8.9421   -8.9520 C   0  0  0  0  0  0  0  0  0  0  0  0
   -6.4783   -8.1881   -7.9574 O   0  3  0  0  0  0  0  0  0  0  0  0
   -6.1983   -9.8510   -9.6982 C   0  0  3  0  0  0  0  0  0  0  0  0
   -4.7966   -9.6222   -9.5643 N   0  0  0  0  0  0  0  0  0  0  0  0
   -5.3143   -9.2701  -10.6379 N   0  0  0  0  0  0  0  0  0  0  0  0
   -9.3614  -10.7862   -9.8023 O   0  0  0  0  0  0  0  0  0  0  0  0
   -6.1270   -4.5458   -4.8834 C   0  0  0  0  0  0  0  0  0  0  0  0
   -5.0135   -4.1210   -5.6153 C   0  0  0  0  0  0  0  0  0  0  0  0
   -4.0448   -3.3882   -5.0588 N   0  3  0  0  0  0  0  0  0  0  0  0
   -2.9856   -3.0196   -5.8051 F   0  0  0  0  0  0  0  0  0  0  0  0
   -4.0762   -3.0198   -3.8006 N   0  0  0  0  0  0  0  0  0  0  0  0
   -5.1289   -3.3321   -3.0475 C   0  0  0  0  0  0  0  0  0  0  0  0
   -6.2067   -4.1071   -3.5319 C   0  0  0  0  0  0  0  0  0  0  0  0
   -7.2762   -4.3479   -2.6301 C   0  0  0  0  0  0  0  0  0  0  0  0
   -7.3228   -3.7428   -1.3603 C   0  0  0  0  0  0  0  0  0  0  0  0
   -6.2424   -3.0232   -0.8947 C   0  0  0  0  0  0  0  0  0  0  0  0
   -5.1520   -2.8506   -1.7408 C   0  0  0  0  0  0  0  0  0  0  0  0
   -4.0938   -2.1519   -1.2981 F   0  0  0  0  0  0  0  0  0  0  0  0
   -6.1743   -2.4320    0.3325 O   0  0  0  0  0  0  0  0  0  0  0  0
   -7.2973   -2.6054    1.2304 C   0  0  1  0  0  0  0  0  0  0  0  0
   -8.6181   -2.8373    0.6258 C   0  0  0  0  0  0  0  0  0  0  0  0
   -9.6477   -2.3090    1.0008 O   0  0  0  0  0  0  0  0  0  0  0  0
   -8.5604   -3.7681   -0.5683 C   0  0  0  0  0  0  0  0  0  0  0  0
   -9.5130   -4.4479   -0.9213 O   0  0  0  0  0  0  0  0  0  0  0  0
   -7.0495   -3.2987    2.4246 O   0  0  0  0  0  0  0  0  0  0  0  0
   -7.2590   -1.8505    2.5306 C   0  0  1  0  0  0  0  0  0  0  0  0
   -6.0476   -0.9828    2.4806 O   0  0  0  0  0  0  0  0  0  0  0  0
   -6.4760   -1.4013    3.6392 C   0  0  0  0  0  0  0  0  0  0  0  0
   -6.7318   -0.8236    4.6848 O   0  0  0  0  0  0  0  0  0  0  0  0
  -10.8969   -3.3698   -3.6633 C   0  0  0  0  0  0  0  0  0  0  0  0
  -10.2588   -2.3794   -3.3398 O   0  0  0  0  0  0  0  0  0  0  0  0
  -12.2977   -3.6536   -3.1729 C   0  0  0  0  0  0  0  0  0  0  0  0
  -13.0531   -2.7293   -2.9273 O   0  0  0  0  0  0  0  0  0  0  0  0
  -12.7755   -5.0986   -3.1435 C   0  0  0  0  0  0  0  0  0  0  0  0
  -13.9368   -5.3960   -2.9241 O   0  0  0  0  0  0  0  0  0  0  0  0
  1  2  1  0  0  0  0
  2  3  2  0  0  0  0
  3  4  1  0  0  0  0
  3 53  1  0  0  0  0
  4  5  1  0  0  0  0
  5  6  1  1  0  0  0
  5 49  1  0  0  0  0
  6  7  1  0  0  0  0
  7  8  2  0  0  0  0
  7 12  1  0  0  0  0
  8  9  1  0  0  0  0
  8 26  1  0  0  0  0
  9 10  1  0  0  0  0
 10 11  2  0  0  0  0
 10 21  1  0  0  0  0
 11 12  1  0  0  0  0
 11 13  1  0  0  0  0
 13 14  1  0  0  0  0
 13 19  1  0  0  0  0
 14 15  1  0  0  0  0
 15 16  2  0  0  0  0
 15 17  1  0  0  0  0
 17 18  1  0  0  0  0
 18 19  1  0  0  0  0
 18 25  1  0  0  0  0
 19 20  2  0  0  0  0
 20 21  1  0  0  0  0
 20 22  1  0  0  0  0
 22 23  1  0  0  0  0
 22 24  1  0  0  0  0
 23 24  2  0  0  0  0
 26 27  2  0  0  0  0
 26 32  1  0  0  0  0
 27 28  1  0  0  0  0
 28 29  1  0  0  0  0
 28 30  2  0  0  0  0
 30 31  1  0  0  0  0
 31 32  2  0  0  0  0
 31 36  1  0  0  0  0
 32 33  1  0  0  0  0
 33 34  2  0  0  0  0
 34 35  1  0  0  0  0
 34 42  1  0  0  0  0
 35 36  2  0  0  0  0
 35 38  1  0  0  0  0
 36 37  1  0  0  0  0
 39 38  1  6  0  0  0
 39 40  1  0  0  0  0
 39 44  1  0  0  0  0
 39 45  1  0  0  0  0
 40 41  2  0  0  0  0
 40 42  1  0  0  0  0
 42 43  2  0  0  0  0
 45 44  1  1  0  0  0
 45 46  1  0  0  0  0
 45 47  1  0  0  0  0
 46 47  1  0  0  0  0
 47 48  2  0  0  0  0
 49 50  2  0  0  0  0
 49 51  1  0  0  0  0
 51 52  2  0  0  0  0
 51 53  1  0  0  0  0
 53 54  2  0  0  0  0
M  CHG  2  21   1  28   1
M  END
$$$$