
 OpenBabel11242000453D

 53 62  0  0  1  0  0  0  0  0999 V2000
   12.9839   -2.3960   -7.3179 O   0  0  0  0  0  0  0  0  0  0  0  0
   13.1436   -1.8750   -6.0566 C   0  0  0  0  0  0  0  0  0  0  0  0
   12.1505   -1.8667   -5.1623 C   0  0  0  0  0  0  0  0  0  0  0  0
   10.9054   -2.3570   -5.5029 O   0  0  0  0  0  0  0  0  0  0  0  0
   10.3997   -3.2443   -4.5088 C   0  0  2  0  0  0  0  0  0  0  0  0
    9.2549   -3.9412   -5.0211 O   0  0  0  0  0  0  0  0  0  0  0  0
    9.4066   -4.9196   -5.9993 C   0  0  0  0  0  0  0  0  0  0  0  0
    8.3563   -5.6890   -6.3833 C   0  0  0  0  0  0  0  0  0  0  0  0
    8.4307   -6.5292   -7.5052 O   0  0  0  0  0  0  0  0  0  0  0  0
    9.5850   -6.5557   -8.2766 C   0  0  0  0  0  0  0  0  0  0  0  0
   10.7042   -5.9268   -7.8918 C   0  0  0  0  0  0  0  0  0  0  0  0
   10.7473   -5.0670   -6.6783 C   0  0  0  0  0  0  0  0  0  0  0  0
   11.9443   -5.9619   -8.7405 C   0  0  3  0  0  0  0  0  0  0  0  0
   12.9941   -6.6347   -7.9912 N   0  0  0  0  0  0  0  0  0  0  0  0
   14.1865   -6.8030   -8.6122 C   0  0  0  0  0  0  0  0  0  0  0  0
   15.3007   -6.7660   -7.9774 N   0  0  0  0  0  0  0  0  0  0  0  0
   14.1322   -7.0943   -9.9286 N   0  0  0  0  0  0  0  0  0  0  0  0
   13.0685   -6.6821  -10.8149 C   0  0  0  0  0  0  0  0  0  0  0  0
   11.7862   -6.6973  -10.0408 C   0  0  0  0  0  0  0  0  0  0  0  0
   10.6152   -7.2872  -10.3790 C   0  0  0  0  0  0  0  0  0  0  0  0
    9.5541   -7.2331   -9.4708 N   0  0  0  0  0  0  0  0  0  0  0  0
   10.3808   -7.9945  -11.6522 C   0  0  3  0  0  0  0  0  0  0  0  0
    9.8433   -7.2460  -12.7356 N   0  0  0  0  0  0  0  0  0  0  0  0
    9.0647   -8.0505  -12.1931 N   0  0  0  0  0  0  0  0  0  0  0  0
    6.9951   -5.6716   -5.7584 C   0  0  0  0  0  0  0  0  0  0  0  0
    5.8995   -5.8547   -6.5968 C   0  0  0  0  0  0  0  0  0  0  0  0
    4.6507   -5.7497   -6.1353 N   0  3  0  0  0  0  0  0  0  0  0  0
    3.6226   -5.9177   -6.9892 F   0  0  0  0  0  0  0  0  0  0  0  0
    4.3746   -5.4612   -4.8799 N   0  0  0  0  0  0  0  0  0  0  0  0
    5.3677   -5.3304   -3.9942 C   0  0  0  0  0  0  0  0  0  0  0  0
    6.7137   -5.4855   -4.3817 C   0  0  0  0  0  0  0  0  0  0  0  0
    7.6933   -5.4501   -3.3660 C   0  0  0  0  0  0  0  0  0  0  0  0
    7.3844   -5.1203   -2.0508 C   0  0  0  0  0  0  0  0  0  0  0  0
    8.4589   -5.0173   -1.0628 C   0  0  0  0  0  0  0  0  0  0  0  0
    9.6313   -4.8986   -1.3868 O   0  0  0  0  0  0  0  0  0  0  0  0
    8.0227   -5.1717    0.3601 C   0  0  0  0  0  0  0  0  0  0  0  0
    8.6554   -5.8556    1.1628 O   0  0  0  0  0  0  0  0  0  0  0  0
    6.7182   -4.5647    0.6350 C   0  0  2  0  0  0  0  0  0  0  0  0
    5.6948   -4.6208   -0.3952 O   0  0  0  0  0  0  0  0  0  0  0  0
    6.0740   -4.9142   -1.6796 C   0  0  0  0  0  0  0  0  0  0  0  0
    5.0524   -5.0577   -2.6422 C   0  0  0  0  0  0  0  0  0  0  0  0
    3.7276   -4.7116   -2.2820 N   0  0  0  0  0  0  0  0  0  0  0  0
    6.7287   -3.4127    1.4264 O   0  0  0  0  0  0  0  0  0  0  0  0
    6.2476   -4.6285    2.0788 C   0  0  1  0  0  0  0  0  0  0  0  0
    4.8503   -5.0136    2.0162 O   0  0  0  0  0  0  0  0  0  0  0  0
    5.1910   -4.1539    2.9642 C   0  0  0  0  0  0  0  0  0  0  0  0
    4.9618   -4.5133    4.5410 S   0  0  0  0  0  0  0  0  0  0  0  0
   10.0014   -2.3650   -3.3274 C   0  0  0  0  0  0  0  0  0  0  0  0
    8.9211   -2.3870   -2.7502 O   0  0  0  0  0  0  0  0  0  0  0  0
   11.0944   -1.3841   -2.9424 C   0  0  0  0  0  0  0  0  0  0  0  0
   10.9410   -0.6167   -2.0055 O   0  0  0  0  0  0  0  0  0  0  0  0
   12.3650   -1.3413   -3.7848 C   0  0  0  0  0  0  0  0  0  0  0  0
   13.4374   -0.9721   -3.3462 O   0  0  0  0  0  0  0  0  0  0  0  0
  1  2  1  0  0  0  0
  2  3  2  0  0  0  0
  3  4  1  0  0  0  0
  3 52  1  0  0  0  0
  4  5  1  0  0  0  0
  5  6  1  6  0  0  0
  5 48  1  0  0  0  0
  6  7  1  0  0  0  0
  7  8  2  0  0  0  0
  7 12  1  0  0  0  0
  8  9  1  0  0  0  0
  8 25  1  0  0  0  0
  9 10  1  0  0  0  0
 10 11  2  0  0  0  0
 10 21  1  0  0  0  0
 11 12  1  0  0  0  0
 11 13  1  0  0  0  0
 13 14  1  0  0  0  0
 13 19  1  0  0  0  0
 14 15  1  0  0  0  0
 15 16  2  0  0  0  0
 15 17  1  0  0  0  0
 17 18  1  0  0  0  0
 18 19  1  0  0  0  0
 19 20  2  0  0  0  0
 20 21  1  0  0  0  0
 20 22  1  0  0  0  0
 22 23  1  0  0  0  0
 22 24  1  0  0  0  0
 23 24  2  0  0  0  0
 25 26  2  0  0  0  0
 25 31  1  0  0  0  0
 26 27  1  0  0  0  0
 27 28  1  0  0  0  0
 27 29  2  0  0  0  0
 29 30  1  0  0  0  0
 30 31  2  0  0  0  0
 30 41  1  0  0  0  0
 31 32  1  0  0  0  0
 32 33  2  0  0  0  0
 33 34  1  0  0  0  0
 33 40  1  0  0  0  0
 34 35  2  0  0  0  0
 34 36  1  0  0  0  0
 36 37  2  0  0  0  0
 38 36  1  6  0  0  0
 38 39  1  0  0  0  0
 38 43  1  0  0  0  0
 38 44  1  0  0  0  0
 39 40  1  0  0  0  0
 40 41  2  0  0  0  0
 41 42  1  0  0  0  0
 44 43  1  6  0  0  0
 44 45  1  0  0  0  0
 44 46  1  0  0  0  0
 45 46  1  0  0  0  0
 46 47  2  0  0  0  0
 48 49  2  0  0  0  0
 48 50  1  0  0  0  0
 50 51  2  0  0  0  0
 50 52  1  0  0  0  0
 52 53  2  0  0  0  0
M  CHG  1  27   1
M  END
$$$$