
 OpenBabel11212022093D

 54 62  0  0  1  0  0  0  0  0999 V2000
   -1.9039    3.6621   -1.0308 N   0  0  0  0  0  0  0  0  0  0  0  0
   -0.9297    3.0947   -0.2373 C   0  0  0  0  0  0  0  0  0  0  0  0
    0.1861    2.4808   -0.6567 C   0  0  0  0  0  0  0  0  0  0  0  0
    0.4562    2.4067   -2.0221 O   0  0  0  0  0  0  0  0  0  0  0  0
    1.8474    2.4278   -2.3167 C   0  0  2  0  0  0  0  0  0  0  0  0
    2.0777    2.4998   -3.7380 O   0  0  0  0  0  0  0  0  0  0  0  0
    2.1860    3.7502   -4.3413 C   0  0  0  0  0  0  0  0  0  0  0  0
    2.3819    3.8886   -5.6791 C   0  0  0  0  0  0  0  0  0  0  0  0
    2.4647    5.1665   -6.2711 O   0  0  0  0  0  0  0  0  0  0  0  0
    2.3733    6.3316   -5.4989 C   0  0  0  0  0  0  0  0  0  0  0  0
    2.2529    6.2583   -4.1649 C   0  0  0  0  0  0  0  0  0  0  0  0
    2.1038    4.9637   -3.4513 C   0  0  0  0  0  0  0  0  0  0  0  0
    2.2966    7.4666   -3.2757 C   0  0  3  0  0  0  0  0  0  0  0  0
    3.5026    7.3730   -2.5359 O   0  0  0  0  0  0  0  0  0  0  0  0
    3.8460    8.4094   -1.7261 C   0  0  0  0  0  0  0  0  0  0  0  0
    4.7162    8.2853   -0.8806 O   0  0  0  0  0  0  0  0  0  0  0  0
    3.1789    9.5695   -1.9281 O   0  0  0  0  0  0  0  0  0  0  0  0
    2.4380    9.8643   -3.1082 C   0  0  3  0  0  0  0  0  0  0  0  0
    2.3792    8.7166   -4.0519 C   0  0  0  0  0  0  0  0  0  0  0  0
    2.4158    8.7428   -5.4030 C   0  0  0  0  0  0  0  0  0  0  0  0
    2.4328    7.5569   -6.1344 O   0  3  0  0  0  0  0  0  0  0  0  0
    2.4741    9.9966   -6.1868 C   0  0  0  0  0  0  0  0  0  0  0  0
    3.7319   10.5755   -6.5523 O   0  0  0  0  0  0  0  0  0  0  0  0
    2.8929    9.9789   -7.5609 O   0  0  0  0  0  0  0  0  0  0  0  0
    1.0948   10.1166   -2.7508 O   0  0  0  0  0  0  0  0  0  0  0  0
    2.5336    2.7261   -6.6402 C   0  0  0  0  0  0  0  0  0  0  0  0
    3.1195    1.5407   -6.1809 C   0  0  0  0  0  0  0  0  0  0  0  0
    3.2359    0.4625   -6.9624 N   0  3  0  0  0  0  0  0  0  0  0  0
    3.7791   -0.6597   -6.4511 F   0  0  0  0  0  0  0  0  0  0  0  0
    2.8410    0.4486   -8.2168 N   0  0  0  0  0  0  0  0  0  0  0  0
    2.3095    1.5446   -8.7563 C   0  0  0  0  0  0  0  0  0  0  0  0
    2.1410    2.7363   -8.0127 C   0  0  0  0  0  0  0  0  0  0  0  0
    1.5845    3.8394   -8.7052 C   0  0  0  0  0  0  0  0  0  0  0  0
    1.2059    3.7628  -10.0540 C   0  0  0  0  0  0  0  0  0  0  0  0
    0.6682    4.9456  -10.7218 C   0  0  0  0  0  0  0  0  0  0  0  0
    0.7994    6.0435  -10.1984 O   0  0  0  0  0  0  0  0  0  0  0  0
   -0.0335    4.7306  -12.0450 C   0  0  0  0  0  0  0  0  0  0  0  0
   -0.4457    5.6939  -12.6726 O   0  0  0  0  0  0  0  0  0  0  0  0
   -0.2269    3.2758  -12.4360 C   0  0  1  0  0  0  0  0  0  0  0  0
    0.8502    2.4079  -12.0210 O   0  0  0  0  0  0  0  0  0  0  0  0
    1.3177    2.5808  -10.7501 C   0  0  0  0  0  0  0  0  0  0  0  0
    1.8975    1.4950  -10.0947 C   0  0  0  0  0  0  0  0  0  0  0  0
    2.0331    0.3386  -10.7640 F   0  0  0  0  0  0  0  0  0  0  0  0
   -1.5944    2.7675  -12.0293 C   0  0  1  0  0  0  0  0  0  0  0  0
   -2.7232    3.4439  -12.6117 O   0  0  0  0  0  0  0  0  0  0  0  0
   -1.7317    1.3461  -11.9076 O   0  0  0  0  0  0  0  0  0  0  0  0
   -1.8639    2.0640  -10.7881 C   0  0  0  0  0  0  0  0  0  0  0  0
   -1.2682    2.0345   -9.7214 O   0  0  0  0  0  0  0  0  0  0  0  0
    2.4722    1.1872   -1.7273 C   0  0  0  0  0  0  0  0  0  0  0  0
    3.0458    0.3104   -2.3526 O   0  0  0  0  0  0  0  0  0  0  0  0
    2.3498    1.2246   -0.2240 C   0  0  0  0  0  0  0  0  0  0  0  0
    3.2927    0.8717    0.4613 O   0  0  0  0  0  0  0  0  0  0  0  0
    1.1240    1.9093    0.3694 C   0  0  0  0  0  0  0  0  0  0  0  0
    0.9731    2.0253    1.5720 O   0  0  0  0  0  0  0  0  0  0  0  0
  1  2  1  0  0  0  0
  2  3  2  0  0  0  0
  3  4  1  0  0  0  0
  3 53  1  0  0  0  0
  4  5  1  0  0  0  0
  5  6  1  6  0  0  0
  5 49  1  0  0  0  0
  6  7  1  0  0  0  0
  7  8  2  0  0  0  0
  7 12  1  0  0  0  0
  8  9  1  0  0  0  0
  8 26  1  0  0  0  0
  9 10  1  0  0  0  0
 10 11  2  0  0  0  0
 10 21  1  0  0  0  0
 11 12  1  0  0  0  0
 11 13  1  0  0  0  0
 13 14  1  0  0  0  0
 13 19  1  0  0  0  0
 14 15  1  0  0  0  0
 15 16  2  0  0  0  0
 15 17  1  0  0  0  0
 17 18  1  0  0  0  0
 18 19  1  0  0  0  0
 18 25  1  0  0  0  0
 19 20  2  0  0  0  0
 20 21  1  0  0  0  0
 20 22  1  0  0  0  0
 22 23  1  0  0  0  0
 22 24  1  0  0  0  0
 23 24  1  0  0  0  0
 26 27  2  0  0  0  0
 26 32  1  0  0  0  0
 27 28  1  0  0  0  0
 28 29  1  0  0  0  0
 28 30  2  0  0  0  0
 30 31  1  0  0  0  0
 31 32  2  0  0  0  0
 31 42  1  0  0  0  0
 32 33  1  0  0  0  0
 33 34  2  0  0  0  0
 34 35  1  0  0  0  0
 34 41  1  0  0  0  0
 35 36  2  0  0  0  0
 35 37  1  0  0  0  0
 37 38  2  0  0  0  0
 39 37  1  1  0  0  0
 39 40  1  0  0  0  0
 39 44  1  0  0  0  0
 40 41  1  0  0  0  0
 41 42  2  0  0  0  0
 42 43  1  0  0  0  0
 44 45  1  6  0  0  0
 44 46  1  0  0  0  0
 44 47  1  0  0  0  0
 46 47  1  0  0  0  0
 47 48  2  0  0  0  0
 49 50  2  0  0  0  0
 49 51  1  0  0  0  0
 51 52  2  0  0  0  0
 51 53  1  0  0  0  0
 53 54  2  0  0  0  0
M  CHG  2  21   1  28   1
M  END
$$$$