
 OpenBabel11252023513D

 54 62  0  0  1  0  0  0  0  0999 V2000
    6.3973    4.0973    1.5327 O   0  0  0  0  0  0  0  0  0  0  0  0
    6.6578    2.9653    0.8041 C   0  0  0  0  0  0  0  0  0  0  0  0
    5.9132    2.6017   -0.2437 C   0  0  0  0  0  0  0  0  0  0  0  0
    4.8027    3.3383   -0.6243 O   0  0  0  0  0  0  0  0  0  0  0  0
    4.6042    3.3077   -2.0296 C   0  0  2  0  0  0  0  0  0  0  0  0
    3.4181    4.0837   -2.3502 O   0  0  0  0  0  0  0  0  0  0  0  0
    3.4800    5.4610   -2.1827 C   0  0  0  0  0  0  0  0  0  0  0  0
    2.3551    6.1695   -1.9558 C   0  0  0  0  0  0  0  0  0  0  0  0
    2.3097    7.5473   -1.8808 O   0  0  0  0  0  0  0  0  0  0  0  0
    3.4498    8.2722   -2.1328 C   0  0  0  0  0  0  0  0  0  0  0  0
    4.6713    7.6694   -2.3242 C   0  0  0  0  0  0  0  0  0  0  0  0
    4.8091    6.1786   -2.3340 C   0  0  0  0  0  0  0  0  0  0  0  0
    5.7486    8.5302   -2.4950 C   0  0  0  0  0  0  0  0  0  0  0  0
    7.0291    7.9769   -2.5970 O   0  0  0  0  0  0  0  0  0  0  0  0
    8.1364    8.7318   -2.9971 C   0  0  0  0  0  0  0  0  0  0  0  0
    9.2160    8.1965   -3.2047 O   0  0  0  0  0  0  0  0  0  0  0  0
    7.9133   10.0459   -3.2424 O   0  0  0  0  0  0  0  0  0  0  0  0
    6.8358   10.7311   -2.6196 C   0  0  3  0  0  0  0  0  0  0  0  0
    5.6009    9.9059   -2.5198 C   0  0  0  0  0  0  0  0  0  0  0  0
    4.3189   10.4361   -2.3521 C   0  0  0  0  0  0  0  0  0  0  0  0
    3.2533    9.6021   -2.1521 N   0  0  0  0  0  0  0  0  0  0  0  0
    4.0614   11.9268   -2.3712 C   0  0  0  0  0  0  0  0  0  0  0  0
    3.8123   12.5247   -3.6526 O   0  0  0  0  0  0  0  0  0  0  0  0
    2.7380   12.3768   -2.7027 O   0  0  0  0  0  0  0  0  0  0  0  0
    7.1924   11.1072   -1.3024 O   0  0  0  0  0  0  0  0  0  0  0  0
    1.0073    5.5928   -1.8026 C   0  0  0  0  0  0  0  0  0  0  0  0
    0.2122    5.4877   -2.9421 C   0  0  0  0  0  0  0  0  0  0  0  0
   -1.0697    5.1440   -2.8228 N   0  3  0  0  0  0  0  0  0  0  0  0
   -1.8411    5.0802   -3.9269 F   0  0  0  0  0  0  0  0  0  0  0  0
   -1.6207    4.8831   -1.6550 N   0  0  0  0  0  0  0  0  0  0  0  0
   -0.8601    4.9282   -0.5419 C   0  0  0  0  0  0  0  0  0  0  0  0
    0.4763    5.3024   -0.5737 N   0  3  0  0  0  0  0  0  0  0  0  0
    1.1994    5.3520    0.5831 C   0  0  0  0  0  0  0  0  0  0  0  0
    0.6578    4.9168    1.7834 C   0  0  0  0  0  0  0  0  0  0  0  0
    1.4919    4.7914    2.9649 C   0  0  0  0  0  0  0  0  0  0  0  0
    2.4851    5.4824    3.0811 O   0  0  0  0  0  0  0  0  0  0  0  0
    1.1359    3.6548    3.8953 C   0  0  0  0  0  0  0  0  0  0  0  0
    2.0199    3.0607    4.4965 O   0  0  0  0  0  0  0  0  0  0  0  0
   -0.2975    3.1562    3.7874 C   0  0  1  0  0  0  0  0  0  0  0  0
   -1.1883    3.9716    2.9916 O   0  0  0  0  0  0  0  0  0  0  0  0
   -0.6480    4.5029    1.8494 C   0  0  0  0  0  0  0  0  0  0  0  0
   -1.4389    4.5467    0.6943 C   0  0  0  0  0  0  0  0  0  0  0  0
   -2.8289    4.3413    0.8290 N   0  0  0  0  0  0  0  0  0  0  0  0
   -0.2743    1.7073    3.3426 C   0  0  1  0  0  0  0  0  0  0  0  0
    0.3685    0.7652    4.2251 O   0  0  0  0  0  0  0  0  0  0  0  0
   -1.4460    1.2423    2.6596 O   0  0  0  0  0  0  0  0  0  0  0  0
   -0.3185    1.2974    1.9429 C   0  0  0  0  0  0  0  0  0  0  0  0
   -0.0441    1.9194    0.9270 O   0  0  0  0  0  0  0  0  0  0  0  0
    4.3827    1.8780   -2.5500 C   0  0  0  0  0  0  0  0  0  0  0  0
    3.6131    1.6448   -3.4864 O   0  0  0  0  0  0  0  0  0  0  0  0
    5.1024    0.7815   -1.7908 C   0  0  3  0  0  0  0  0  0  0  0  0
    6.2385    1.3342   -0.9687 C   0  0  0  0  0  0  0  0  0  0  0  0
    7.3329    0.7868   -0.8672 O   0  0  0  0  0  0  0  0  0  0  0  0
    4.2088    0.1261   -0.9868 F   0  0  0  0  0  0  0  0  0  0  0  0
  1  2  1  0  0  0  0
  2  3  2  0  0  0  0
  3  4  1  0  0  0  0
  3 52  1  0  0  0  0
  4  5  1  0  0  0  0
  5  6  1  1  0  0  0
  5 49  1  0  0  0  0
  6  7  1  0  0  0  0
  7  8  2  0  0  0  0
  7 12  1  0  0  0  0
  8  9  1  0  0  0  0
  8 26  1  0  0  0  0
  9 10  1  0  0  0  0
 10 11  2  0  0  0  0
 10 21  1  0  0  0  0
 11 12  1  0  0  0  0
 11 13  1  0  0  0  0
 13 14  1  0  0  0  0
 13 19  2  0  0  0  0
 14 15  1  0  0  0  0
 15 16  2  0  0  0  0
 15 17  1  0  0  0  0
 17 18  1  0  0  0  0
 18 19  1  0  0  0  0
 18 25  1  0  0  0  0
 19 20  1  0  0  0  0
 20 21  2  0  0  0  0
 20 22  1  0  0  0  0
 22 23  1  0  0  0  0
 22 24  1  0  0  0  0
 23 24  1  0  0  0  0
 26 27  2  0  0  0  0
 26 32  1  0  0  0  0
 27 28  1  0  0  0  0
 28 29  1  0  0  0  0
 28 30  2  0  0  0  0
 30 31  1  0  0  0  0
 31 32  2  0  0  0  0
 31 42  1  0  0  0  0
 32 33  1  0  0  0  0
 33 34  2  0  0  0  0
 34 35  1  0  0  0  0
 34 41  1  0  0  0  0
 35 36  2  0  0  0  0
 35 37  1  0  0  0  0
 37 38  2  0  0  0  0
 39 37  1  6  0  0  0
 39 40  1  0  0  0  0
 39 44  1  0  0  0  0
 40 41  1  0  0  0  0
 41 42  2  0  0  0  0
 42 43  1  0  0  0  0
 44 45  1  1  0  0  0
 44 46  1  0  0  0  0
 44 47  1  0  0  0  0
 46 47  1  0  0  0  0
 47 48  2  0  0  0  0
 49 50  2  0  0  0  0
 49 51  1  0  0  0  0
 51 52  1  0  0  0  0
 51 54  1  0  0  0  0
 52 53  2  0  0  0  0
M  CHG  2  28   1  32   1
M  END
$$$$