
 OpenBabel11262017493D

 55 63  0  0  1  0  0  0  0  0999 V2000
   -0.6148    2.4427   -4.2709 O   0  0  0  0  0  0  0  0  0  0  0  0
   -0.1053    2.2971   -3.0033 C   0  0  0  0  0  0  0  0  0  0  0  0
    0.6140    1.2334   -2.6257 C   0  0  0  0  0  0  0  0  0  0  0  0
    0.8116    0.1880   -3.5048 O   0  0  0  0  0  0  0  0  0  0  0  0
    1.9900   -0.5829   -3.3332 C   0  0  2  0  0  0  0  0  0  0  0  0
    2.0390   -1.6355   -4.3186 O   0  0  0  0  0  0  0  0  0  0  0  0
    2.1452   -1.2623   -5.6597 C   0  0  0  0  0  0  0  0  0  0  0  0
    2.2138   -2.1825   -6.6545 C   0  0  0  0  0  0  0  0  0  0  0  0
    2.3212   -1.8027   -7.9992 O   0  0  0  0  0  0  0  0  0  0  0  0
    2.4645   -0.4496   -8.3557 C   0  0  0  0  0  0  0  0  0  0  0  0
    2.4743    0.5032   -7.4091 C   0  0  0  0  0  0  0  0  0  0  0  0
    2.2437    0.2047   -5.9741 C   0  0  0  0  0  0  0  0  0  0  0  0
    2.7151    1.9489   -7.7075 C   0  0  3  0  0  0  0  0  0  0  0  0
    3.9785    2.2786   -7.1595 O   0  0  0  0  0  0  0  0  0  0  0  0
    4.4497    3.5386   -7.3679 C   0  0  0  0  0  0  0  0  0  0  0  0
    5.3743    3.9825   -6.7087 O   0  0  0  0  0  0  0  0  0  0  0  0
    3.8482    4.2426   -8.3568 O   0  0  0  0  0  0  0  0  0  0  0  0
    3.0027    3.6664   -9.3480 C   0  0  3  0  0  0  0  0  0  0  0  0
    2.8182    2.2030   -9.1568 C   0  0  0  0  0  0  0  0  0  0  0  0
    2.7621    1.2275  -10.0999 C   0  0  0  0  0  0  0  0  0  0  0  0
    2.6234   -0.1149   -9.6996 O   0  3  0  0  0  0  0  0  0  0  0  0
    2.6984   -1.2175  -10.6144 O   0  0  0  0  0  0  0  0  0  0  0  0
    2.8408    1.5637  -11.5423 C   0  0  0  0  0  0  0  0  0  0  0  0
    4.1164    1.6773  -12.1887 O   0  0  0  0  0  0  0  0  0  0  0  0
    3.2226    0.6072  -12.5420 O   0  0  0  0  0  0  0  0  0  0  0  0
    1.7055    4.2114   -9.2183 O   0  0  0  0  0  0  0  0  0  0  0  0
    2.2617   -3.6624   -6.4027 C   0  0  0  0  0  0  0  0  0  0  0  0
    2.9435   -4.0918   -5.2598 C   0  0  0  0  0  0  0  0  0  0  0  0
    3.0213   -5.3784   -4.9252 N   0  3  0  0  0  0  0  0  0  0  0  0
    3.6871   -5.7213   -3.8059 F   0  0  0  0  0  0  0  0  0  0  0  0
    2.4695   -6.3257   -5.6462 N   0  0  0  0  0  0  0  0  0  0  0  0
    1.8113   -6.0083   -6.7608 C   0  0  0  0  0  0  0  0  0  0  0  0
    1.6935   -4.6771   -7.2248 C   0  0  0  0  0  0  0  0  0  0  0  0
    1.0003   -4.4814   -8.4521 C   0  0  0  0  0  0  0  0  0  0  0  0
    0.3872   -5.5503   -9.1308 C   0  0  0  0  0  0  0  0  0  0  0  0
   -0.3510   -5.3247  -10.3790 C   0  0  0  0  0  0  0  0  0  0  0  0
   -0.2305   -4.2642  -10.9734 O   0  0  0  0  0  0  0  0  0  0  0  0
   -1.2469   -6.4495  -10.8680 C   0  0  0  0  0  0  0  0  0  0  0  0
   -1.8421   -6.3495  -11.9299 O   0  0  0  0  0  0  0  0  0  0  0  0
   -1.3843   -7.6096   -9.9039 C   0  0  1  0  0  0  0  0  0  0  0  0
   -0.1747   -7.9032   -9.1821 O   0  0  0  0  0  0  0  0  0  0  0  0
    0.4526   -6.8301   -8.6196 C   0  0  0  0  0  0  0  0  0  0  0  0
    1.1988   -7.0431   -7.4651 C   0  0  0  0  0  0  0  0  0  0  0  0
    1.2920   -8.2913   -6.9793 F   0  0  0  0  0  0  0  0  0  0  0  0
   -2.5257   -7.4038   -8.9508 C   0  0  1  0  0  0  0  0  0  0  0  0
   -2.4341   -6.2433   -8.0747 O   0  0  0  0  0  0  0  0  0  0  0  0
   -3.9122   -7.6394   -9.5710 O   0  0  0  0  0  0  0  0  0  0  0  0
   -3.4512   -8.3797   -8.6089 C   0  0  0  0  0  0  0  0  0  0  0  0
   -3.7804   -9.3261   -7.8234 N   0  0  0  0  0  0  0  0  0  0  0  0
    2.0239   -1.1360   -1.9285 C   0  0  0  0  0  0  0  0  0  0  0  0
    2.1053   -2.3138   -1.6216 O   0  0  0  0  0  0  0  0  0  0  0  0
    2.0183   -0.0053   -0.9348 C   0  0  0  0  0  0  0  0  0  0  0  0
    2.8547    0.0141   -0.0492 O   0  0  0  0  0  0  0  0  0  0  0  0
    1.1237    1.1872   -1.2223 C   0  0  0  0  0  0  0  0  0  0  0  0
    0.8814    2.0331   -0.3816 O   0  0  0  0  0  0  0  0  0  0  0  0
  1  2  1  0  0  0  0
  2  3  2  0  0  0  0
  3  4  1  0  0  0  0
  3 54  1  0  0  0  0
  4  5  1  0  0  0  0
  5  6  1  6  0  0  0
  5 50  1  0  0  0  0
  6  7  1  0  0  0  0
  7  8  2  0  0  0  0
  7 12  1  0  0  0  0
  8  9  1  0  0  0  0
  8 27  1  0  0  0  0
  9 10  1  0  0  0  0
 10 11  2  0  0  0  0
 10 21  1  0  0  0  0
 11 12  1  0  0  0  0
 11 13  1  0  0  0  0
 13 14  1  0  0  0  0
 13 19  1  0  0  0  0
 14 15  1  0  0  0  0
 15 16  2  0  0  0  0
 15 17  1  0  0  0  0
 17 18  1  0  0  0  0
 18 19  1  0  0  0  0
 18 26  1  0  0  0  0
 19 20  2  0  0  0  0
 20 21  1  0  0  0  0
 20 23  1  0  0  0  0
 21 22  1  0  0  0  0
 23 24  1  0  0  0  0
 23 25  1  0  0  0  0
 24 25  1  0  0  0  0
 27 28  2  0  0  0  0
 27 33  1  0  0  0  0
 28 29  1  0  0  0  0
 29 30  1  0  0  0  0
 29 31  2  0  0  0  0
 31 32  1  0  0  0  0
 32 33  2  0  0  0  0
 32 43  1  0  0  0  0
 33 34  1  0  0  0  0
 34 35  2  0  0  0  0
 35 36  1  0  0  0  0
 35 42  1  0  0  0  0
 36 37  2  0  0  0  0
 36 38  1  0  0  0  0
 38 39  2  0  0  0  0
 40 38  1  1  0  0  0
 40 41  1  0  0  0  0
 40 45  1  0  0  0  0
 41 42  1  0  0  0  0
 42 43  2  0  0  0  0
 43 44  1  0  0  0  0
 45 46  1  1  0  0  0
 45 47  1  0  0  0  0
 45 48  1  0  0  0  0
 47 48  1  0  0  0  0
 48 49  2  0  0  0  0
 50 51  2  0  0  0  0
 50 52  1  0  0  0  0
 52 53  2  0  0  0  0
 52 54  1  0  0  0  0
 54 55  2  0  0  0  0
M  CHG  2  21   1  29   1
M  END
$$$$