
 OpenBabel10252012073D

 94109  0  0  1  0  0  0  0  0999 V2000
    6.2088    0.5994   -4.3327 F   0  0  0  0  0  0  0  0  0  0  0  0
    6.2346    1.0734   -3.0493 C   0  0  3  0  0  0  0  0  0  0  0  0
    7.6345    0.7042   -2.5605 C   0  0  0  0  0  0  0  0  0  0  0  0
    8.5947    1.8598   -2.8707 C   0  0  3  0  0  0  0  0  0  0  0  0
   10.0521    1.4246   -2.7201 C   0  0  0  0  0  0  0  0  0  0  0  0
   10.7348    2.0053   -1.4995 C   0  0  0  0  0  0  0  0  0  0  0  0
   10.4363    3.4880   -1.3130 C   0  0  3  0  0  0  0  0  0  0  0  0
    8.9534    3.7421   -1.1329 C   0  0  0  0  0  0  0  0  0  0  0  0
    8.1074    3.0267   -2.0144 C   0  0  0  0  0  0  0  0  0  0  0  0
    6.7273    3.3069   -2.0894 C   0  0  0  0  0  0  0  0  0  0  0  0
    5.9378    2.5838   -3.1587 C   0  0  3  0  0  0  0  0  0  0  0  0
    4.4292    2.9473   -3.2741 C   0  0  3  0  0  0  0  0  0  0  0  0
    4.1991    4.3873   -2.7505 C   0  0  0  0  0  0  0  0  0  0  0  0
    4.6951    4.5534   -1.3149 C   0  0  0  0  0  0  0  0  0  0  0  0
    6.1613    4.2394   -1.2349 C   0  0  0  0  0  0  0  0  0  0  0  0
    6.9770    4.8537   -0.2742 C   0  0  0  0  0  0  0  0  0  0  0  0
    8.3803    4.6490   -0.1897 C   0  0  0  0  0  0  0  0  0  0  0  0
    9.1370    5.3788    0.8830 C   0  0  0  0  0  0  0  0  0  0  0  0
   10.4189    5.9029    0.6690 C   0  0  0  0  0  0  0  0  0  0  0  0
   11.1730    6.5707    1.6581 C   0  0  0  0  0  0  0  0  0  0  0  0
   12.5382    7.1075    1.2630 C   0  0  3  0  0  0  0  0  0  0  0  0
   13.5077    5.9472    0.9777 C   0  0  0  0  0  0  0  0  0  0  0  0
   14.8815    6.4520    0.5690 C   0  0  0  0  0  0  0  0  0  0  0  0
   15.4851    7.3664    1.6396 C   0  0  3  0  0  0  0  0  0  0  0  0
   14.5430    8.5634    1.9135 C   0  0  3  0  0  0  0  0  0  0  0  0
   13.0982    8.1228    2.2844 C   0  0  3  0  0  0  0  0  0  0  0  0
   12.9267    7.5619    3.7070 C   0  0  0  0  0  0  0  0  0  0  0  0
   11.4347    7.3734    4.0634 C   0  0  3  0  0  0  0  0  0  0  0  0
   10.6433    6.7265    2.9422 C   0  0  0  0  0  0  0  0  0  0  0  0
    9.3399    6.2686    3.1729 C   0  0  0  0  0  0  0  0  0  0  0  0
    8.6084    5.6271    2.1641 C   0  0  0  0  0  0  0  0  0  0  0  0
    7.3555    5.2560    2.4743 F   0  0  0  0  0  0  0  0  0  0  0  0
   10.8009    8.7009    4.5019 C   0  0  0  0  0  0  0  0  0  0  0  0
   15.1246    9.5361    2.9455 C   0  0  0  0  0  0  0  0  0  0  0  0
   16.8804    7.8032    1.1816 C   0  0  0  0  0  0  0  0  0  0  0  0
    3.8524    2.8648   -4.7342 C   0  0  3  0  0  0  0  0  0  0  0  0
    4.5925    3.7594   -5.6288 O   0  0  0  0  0  0  0  0  0  0  0  0
    4.5101    3.5394   -6.9833 C   0  0  0  0  0  0  0  0  0  0  0  0
    3.8318    2.4707   -7.5340 C   0  0  0  0  0  0  0  0  0  0  0  0
    2.9908    1.5802   -6.6546 C   0  0  3  0  0  0  0  0  0  0  0  0
    3.7285    1.4383   -5.3155 C   0  0  3  0  0  0  0  0  0  0  0  0
    3.0243    0.5605   -4.4323 O   0  0  0  0  0  0  0  0  0  0  0  0
    3.5918   -0.6474   -4.0958 C   0  0  0  0  0  0  0  0  0  0  0  0
    4.5261   -1.3701   -4.8472 C   0  0  0  0  0  0  0  0  0  0  0  0
    4.9962   -2.6160   -4.4052 C   0  0  0  0  0  0  0  0  0  0  0  0
    4.5364   -3.1538   -3.2079 C   0  0  0  0  0  0  0  0  0  0  0  0
    3.6479   -2.4220   -2.4261 C   0  0  0  0  0  0  0  0  0  0  0  0
    3.1738   -1.1814   -2.8717 C   0  0  0  0  0  0  0  0  0  0  0  0
    1.7298    2.2484   -6.5822 O   0  0  0  0  0  0  0  0  0  0  0  0
    3.8751    2.2399   -8.9225 C   0  0  0  0  0  0  0  0  0  0  0  0
    4.5542    3.0999   -9.8269 C   0  0  0  0  0  0  0  0  0  0  0  0
    5.2010    4.2228   -9.2831 C   0  0  0  0  0  0  0  0  0  0  0  0
    5.1739    4.4255   -7.8542 C   0  0  0  0  0  0  0  0  0  0  0  0
    5.7897    5.4895   -7.3338 F   0  0  0  0  0  0  0  0  0  0  0  0
    5.8344    5.0904  -10.2119 C   0  0  0  0  0  0  0  0  0  0  0  0
    6.5307    6.6247   -9.7990 Cl  0  0  0  0  0  0  0  0  0  0  0  0
    5.8871    4.7933  -11.5968 C   0  0  0  0  0  0  0  0  0  0  0  0
    5.2627    3.6818  -12.1788 C   0  0  0  0  0  0  0  0  0  0  0  0
    4.5592    2.8611  -11.2552 C   0  0  0  0  0  0  0  0  0  0  0  0
    3.5564    1.5832  -11.8953 Cl  0  0  0  0  0  0  0  0  0  0  0  0
    5.3484    3.4749  -13.6894 C   0  0  0  0  0  0  0  0  0  0  0  0
    5.3612    4.6115  -14.5542 C   0  0  0  0  0  0  0  0  0  0  0  0
    5.6729    4.5732  -15.9760 C   0  0  0  0  0  0  0  0  0  0  0  0
    5.9791    5.6789  -16.9947 C   0  0  0  0  0  0  0  0  0  0  0  0
    6.2749    5.3267  -18.3231 C   0  0  0  0  0  0  0  0  0  0  0  0
    6.8635    6.2376  -19.2362 N   0  0  0  0  0  0  0  0  0  0  0  0
    6.1590    3.9846  -18.6511 C   0  0  0  0  0  0  0  0  0  0  0  0
    5.8653    3.0180  -17.7764 N   0  0  0  0  0  0  0  0  0  0  0  0
    5.6953    3.2505  -16.4759 N   0  3  0  0  0  0  0  0  0  0  0  0
    5.5878    2.1432  -15.6678 N   0  3  0  0  0  0  0  0  0  0  0  0
    5.5219    2.2252  -14.3172 C   0  0  0  0  0  0  0  0  0  0  0  0
    5.8450    1.1105  -13.5948 O   0  0  0  0  0  0  0  0  0  0  0  0
    5.6212    0.5695  -16.3745 Cl  0  0  0  0  0  0  0  0  0  0  0  0
    6.0769    7.2607  -16.7032 N   0  3  0  0  0  0  0  0  0  0  0  0
    5.6997    8.2512  -17.6646 N   0  3  0  0  0  0  0  0  0  0  0  0
    4.5559    7.9075  -18.9231 Cl  0  0  0  0  0  0  0  0  0  0  0  0
    5.9722    9.6081  -17.4999 C   0  0  0  0  0  0  0  0  0  0  0  0
    6.4171   10.1905  -16.2838 C   0  0  0  0  0  0  0  0  0  0  0  0
    6.6359    9.2627  -15.2745 C   0  0  0  0  0  0  0  0  0  0  0  0
    6.5905    7.7880  -15.5229 C   0  0  0  0  0  0  0  0  0  0  0  0
    7.2160    6.9999  -14.5582 N   0  0  0  0  0  0  0  0  0  0  0  0
    6.9407    9.7643  -14.0755 N   0  0  0  0  0  0  0  0  0  0  0  0
    7.0055   11.0729  -13.7373 N   0  3  0  0  0  0  0  0  0  0  0  0
    6.8696   12.0697  -14.6805 C   0  0  0  0  0  0  0  0  0  0  0  0
    6.6328   11.5872  -15.9900 N   0  3  0  0  0  0  0  0  0  0  0  0
    6.6514   12.5014  -17.0142 N   0  0  0  0  0  0  0  0  0  0  0  0
    6.8809   13.8304  -16.8031 N   0  3  0  0  0  0  0  0  0  0  0  0
    7.0322   14.7490  -17.9857 C   0  0  0  0  0  0  0  0  0  0  0  0
    6.9722   14.3152  -15.5455 C   0  0  0  0  0  0  0  0  0  0  0  0
    6.9370   13.4319  -14.5020 N   0  3  0  0  0  0  0  0  0  0  0  0
    6.8938   14.1700  -12.9414 Cl  0  0  0  0  0  0  0  0  0  0  0  0
    7.1185   15.6471  -15.2574 O   0  0  0  0  0  0  0  0  0  0  0  0
    7.3843   11.3110  -12.0830 Cl  0  0  0  0  0  0  0  0  0  0  0  0
   10.9900    4.4407   -2.7567 Cl  0  0  0  0  0  0  0  0  0  0  0  0
  1  2  1  0  0  0  0
  2  3  1  0  0  0  0
  2 11  1  0  0  0  0
  3  4  1  0  0  0  0
  4  5  1  0  0  0  0
  4  9  1  0  0  0  0
  5  6  1  0  0  0  0
  6  7  1  0  0  0  0
  7  8  1  0  0  0  0
  7 94  1  0  0  0  0
  8  9  2  0  0  0  0
  8 17  1  0  0  0  0
  9 10  1  0  0  0  0
 10 11  1  0  0  0  0
 10 15  2  0  0  0  0
 11 12  1  0  0  0  0
 12 13  1  0  0  0  0
 12 36  1  0  0  0  0
 13 14  1  0  0  0  0
 14 15  1  0  0  0  0
 15 16  1  0  0  0  0
 16 17  2  0  0  0  0
 17 18  1  0  0  0  0
 18 19  2  0  0  0  0
 18 31  1  0  0  0  0
 19 20  1  0  0  0  0
 20 21  1  0  0  0  0
 20 29  2  0  0  0  0
 21 22  1  0  0  0  0
 21 26  1  0  0  0  0
 22 23  1  0  0  0  0
 23 24  1  0  0  0  0
 24 25  1  0  0  0  0
 24 35  1  0  0  0  0
 25 26  1  0  0  0  0
 25 34  1  0  0  0  0
 26 27  1  0  0  0  0
 27 28  1  0  0  0  0
 28 29  1  0  0  0  0
 28 33  1  0  0  0  0
 29 30  1  0  0  0  0
 30 31  2  0  0  0  0
 31 32  1  0  0  0  0
 36 37  1  0  0  0  0
 36 41  1  0  0  0  0
 37 38  1  0  0  0  0
 38 39  2  0  0  0  0
 38 53  1  0  0  0  0
 39 40  1  0  0  0  0
 39 50  1  0  0  0  0
 40 41  1  0  0  0  0
 40 49  1  0  0  0  0
 41 42  1  0  0  0  0
 42 43  1  0  0  0  0
 43 44  2  0  0  0  0
 43 48  1  0  0  0  0
 44 45  1  0  0  0  0
 45 46  2  0  0  0  0
 46 47  1  0  0  0  0
 47 48  2  0  0  0  0
 50 51  2  0  0  0  0
 51 52  1  0  0  0  0
 51 59  1  0  0  0  0
 52 53  2  0  0  0  0
 52 55  1  0  0  0  0
 53 54  1  0  0  0  0
 55 56  1  0  0  0  0
 55 57  2  0  0  0  0
 57 58  1  0  0  0  0
 58 59  2  0  0  0  0
 58 61  1  0  0  0  0
 59 60  1  0  0  0  0
 61 62  2  0  0  0  0
 61 71  1  0  0  0  0
 62 63  1  0  0  0  0
 63 64  2  0  0  0  0
 63 69  1  0  0  0  0
 64 65  1  0  0  0  0
 64 74  1  0  0  0  0
 65 66  1  0  0  0  0
 65 67  2  0  0  0  0
 67 68  1  0  0  0  0
 68 69  2  0  0  0  0
 69 70  1  0  0  0  0
 70 71  2  0  0  0  0
 70 73  1  0  0  0  0
 71 72  1  0  0  0  0
 74 75  2  0  0  0  0
 74 80  1  0  0  0  0
 75 76  1  0  0  0  0
 75 77  1  0  0  0  0
 77 78  2  0  0  0  0
 78 79  1  0  0  0  0
 78 85  1  0  0  0  0
 79 80  2  0  0  0  0
 79 82  1  0  0  0  0
 80 81  1  0  0  0  0
 82 83  2  0  0  0  0
 83 84  1  0  0  0  0
 83 93  1  0  0  0  0
 84 85  2  0  0  0  0
 84 90  1  0  0  0  0
 85 86  1  0  0  0  0
 86 87  2  0  0  0  0
 87 88  1  0  0  0  0
 87 89  1  0  0  0  0
 89 90  2  0  0  0  0
 89 92  1  0  0  0  0
 90 91  1  0  0  0  0
M  CHG  8  69   1  70   1  74   1  75   1  83   1  85   1  87   1  90   1
M  END
$$$$