
 OpenBabel10192017553D

 54 63  0  0  1  0  0  0  0  0999 V2000
    5.8444    6.3397    3.5936 O   0  0  0  0  0  0  0  0  0  0  0  0
    6.3217    5.2464    2.9229 C   0  0  0  0  0  0  0  0  0  0  0  0
    5.5197    4.2808    2.4584 C   0  0  0  0  0  0  0  0  0  0  0  0
    4.1402    4.3620    2.5719 O   0  0  0  0  0  0  0  0  0  0  0  0
    3.5242    4.1869    1.2891 C   0  0  2  0  0  0  0  0  0  0  0  0
    2.1716    4.6511    1.2145 O   0  0  0  0  0  0  0  0  0  0  0  0
    1.8627    5.9525    1.5944 C   0  0  0  0  0  0  0  0  0  0  0  0
    0.5926    6.4333    1.5703 C   0  0  0  0  0  0  0  0  0  0  0  0
    0.3081    7.7869    1.8671 O   0  0  0  0  0  0  0  0  0  0  0  0
    1.3401    8.6708    2.1715 C   0  0  0  0  0  0  0  0  0  0  0  0
    2.6047    8.2463    2.2538 C   0  0  0  0  0  0  0  0  0  0  0  0
    2.9920    6.8398    2.0389 C   0  0  0  0  0  0  0  0  0  0  0  0
    3.6690    9.2035    2.6417 C   0  0  0  0  0  0  0  0  0  0  0  0
    4.9018    8.8256    2.7067 N   0  0  0  0  0  0  0  0  0  0  0  0
    5.8577    9.7056    3.1523 C   0  0  0  0  0  0  0  0  0  0  0  0
    6.9875    9.2570    3.3100 O   0  0  0  0  0  0  0  0  0  0  0  0
    5.5984   11.0277    3.4445 N   0  0  0  0  0  0  0  0  0  0  0  0
    4.3790   11.4419    3.3638 C   0  0  0  0  0  0  0  0  0  0  0  0
    3.2635   10.5833    2.9533 C   0  0  0  0  0  0  0  0  0  0  0  0
    1.9701   10.9396    2.8158 C   0  0  0  0  0  0  0  0  0  0  0  0
    1.0319    9.9920    2.4082 N   0  0  0  0  0  0  0  0  0  0  0  0
    1.4703   12.3092    3.0645 C   0  0  0  0  0  0  0  0  0  0  0  0
    0.1452   12.5665    3.5529 O   0  0  0  0  0  0  0  0  0  0  0  0
    1.2874   12.8104    4.3976 O   0  0  0  0  0  0  0  0  0  0  0  0
   -0.6321    5.6571    1.1843 C   0  0  0  0  0  0  0  0  0  0  0  0
   -1.5584    6.4058    0.5262 N   0  0  0  0  0  0  0  0  0  0  0  0
   -2.6675    5.7777    0.1398 C   0  0  0  0  0  0  0  0  0  0  0  0
   -2.9308    4.4821    0.3310 N   0  0  0  0  0  0  0  0  0  0  0  0
   -2.0164    3.7481    0.9890 C   0  0  0  0  0  0  0  0  0  0  0  0
   -0.8177    4.2952    1.4797 C   0  0  0  0  0  0  0  0  0  0  0  0
    0.0731    3.5358    2.1637 N   0  0  0  0  0  0  0  0  0  0  0  0
   -0.1040    2.2037    2.2220 C   0  0  0  0  0  0  0  0  0  0  0  0
    0.9941    1.4163    2.8038 C   0  0  0  0  0  0  0  0  0  0  0  0
    1.9450    1.9188    3.3879 O   0  0  0  0  0  0  0  0  0  0  0  0
    0.9428   -0.0753    2.5822 C   0  0  0  0  0  0  0  0  0  0  0  0
    1.8740   -0.7934    2.9243 O   0  0  0  0  0  0  0  0  0  0  0  0
   -0.2599   -0.5922    1.8262 C   0  0  1  0  0  0  0  0  0  0  0  0
   -1.4309    0.2311    1.8282 O   0  0  0  0  0  0  0  0  0  0  0  0
   -1.2273    1.5764    1.7428 C   0  0  0  0  0  0  0  0  0  0  0  0
   -2.2472    2.3699    1.1835 C   0  0  0  0  0  0  0  0  0  0  0  0
   -3.5566    1.7393    0.7606 C   0  0  0  0  0  0  0  0  0  0  0  0
   -4.2895    1.0105    1.7630 O   0  0  0  0  0  0  0  0  0  0  0  0
   -4.7709    2.2850    1.3040 O   0  0  0  0  0  0  0  0  0  0  0  0
    0.0605   -1.0277    0.4254 C   0  0  1  0  0  0  0  0  0  0  0  0
   -1.0583   -1.5354   -0.3458 O   0  0  0  0  0  0  0  0  0  0  0  0
    0.9550   -0.1905   -0.2892 O   0  0  0  0  0  0  0  0  0  0  0  0
    1.3900   -1.4495   -0.0424 C   0  0  0  0  0  0  0  0  0  0  0  0
    1.6698   -2.3270   -0.8291 O   0  0  0  0  0  0  0  0  0  0  0  0
    3.6392    2.7041    0.9519 C   0  0  0  0  0  0  0  0  0  0  0  0
    2.7711    2.0040    0.4449 O   0  0  0  0  0  0  0  0  0  0  0  0
    5.0344    2.1639    1.2172 C   0  0  0  0  0  0  0  0  0  0  0  0
    5.3106    1.0012    0.9676 O   0  0  0  0  0  0  0  0  0  0  0  0
    6.1001    3.1188    1.7364 C   0  0  0  0  0  0  0  0  0  0  0  0
    7.2846    2.9758    1.4901 O   0  0  0  0  0  0  0  0  0  0  0  0
  1  2  1  0  0  0  0
  2  3  2  0  0  0  0
  3  4  1  0  0  0  0
  3 53  1  0  0  0  0
  4  5  1  0  0  0  0
  5  6  1  1  0  0  0
  5 49  1  0  0  0  0
  6  7  1  0  0  0  0
  7  8  2  0  0  0  0
  7 12  1  0  0  0  0
  8  9  1  0  0  0  0
  8 25  1  0  0  0  0
  9 10  1  0  0  0  0
 10 11  2  0  0  0  0
 10 21  1  0  0  0  0
 11 12  1  0  0  0  0
 11 13  1  0  0  0  0
 13 14  2  0  0  0  0
 13 19  1  0  0  0  0
 14 15  1  0  0  0  0
 15 16  2  0  0  0  0
 15 17  1  0  0  0  0
 17 18  2  0  0  0  0
 18 19  1  0  0  0  0
 19 20  2  0  0  0  0
 20 21  1  0  0  0  0
 20 22  1  0  0  0  0
 22 23  1  0  0  0  0
 22 24  1  0  0  0  0
 23 24  1  0  0  0  0
 25 26  2  0  0  0  0
 25 30  1  0  0  0  0
 26 27  1  0  0  0  0
 27 28  2  0  0  0  0
 28 29  1  0  0  0  0
 29 30  2  0  0  0  0
 29 40  1  0  0  0  0
 30 31  1  0  0  0  0
 31 32  2  0  0  0  0
 32 33  1  0  0  0  0
 32 39  1  0  0  0  0
 33 34  2  0  0  0  0
 33 35  1  0  0  0  0
 35 36  2  0  0  0  0
 37 35  1  6  0  0  0
 37 38  1  0  0  0  0
 37 44  1  0  0  0  0
 38 39  1  0  0  0  0
 39 40  2  0  0  0  0
 40 41  1  0  0  0  0
 41 42  1  0  0  0  0
 41 43  1  0  0  0  0
 42 43  1  0  0  0  0
 44 45  1  6  0  0  0
 44 46  1  0  0  0  0
 44 47  1  0  0  0  0
 46 47  1  0  0  0  0
 47 48  2  0  0  0  0
 49 50  2  0  0  0  0
 49 51  1  0  0  0  0
 51 52  2  0  0  0  0
 51 53  1  0  0  0  0
 53 54  2  0  0  0  0
M  END
$$$$