
 OpenBabel11222014593D

 54 63  0  0  1  0  0  0  0  0999 V2000
    5.1903   -4.9369   -1.8182 O   0  0  0  0  0  0  0  0  0  0  0  0
    5.4818   -3.8397   -1.0460 C   0  0  0  0  0  0  0  0  0  0  0  0
    4.7714   -3.5307    0.0405 C   0  0  0  0  0  0  0  0  0  0  0  0
    3.6722   -4.3021    0.4174 O   0  0  0  0  0  0  0  0  0  0  0  0
    3.7011   -4.5862    1.8195 C   0  0  2  0  0  0  0  0  0  0  0  0
    2.6654   -5.5191    2.2158 O   0  0  0  0  0  0  0  0  0  0  0  0
    2.5676   -6.7722    1.6268 C   0  0  0  0  0  0  0  0  0  0  0  0
    1.6014   -7.6578    1.9861 C   0  0  0  0  0  0  0  0  0  0  0  0
    1.6576   -9.0131    1.5333 O   0  0  0  0  0  0  0  0  0  0  0  0
    2.7126   -9.4584    0.6999 C   0  0  0  0  0  0  0  0  0  0  0  0
    3.6092   -8.5796    0.2256 C   0  0  0  0  0  0  0  0  0  0  0  0
    3.6073   -7.1401    0.6010 C   0  0  0  0  0  0  0  0  0  0  0  0
    4.6925   -8.9653   -0.7397 C   0  0  3  0  0  0  0  0  0  0  0  0
    5.9301   -8.6594   -0.1345 O   0  0  0  0  0  0  0  0  0  0  0  0
    7.0187   -8.8193   -0.9392 C   0  0  0  0  0  0  0  0  0  0  0  0
    8.0292   -8.1738   -0.7616 O   0  0  0  0  0  0  0  0  0  0  0  0
    6.8622   -9.7167   -1.9440 O   0  0  0  0  0  0  0  0  0  0  0  0
    5.8331  -10.7041   -1.9556 C   0  0  3  0  0  0  0  0  0  0  0  0
    4.7293  -10.4148   -0.9959 C   0  0  0  0  0  0  0  0  0  0  0  0
    3.8528  -11.2797   -0.4396 C   0  0  0  0  0  0  0  0  0  0  0  0
    2.8177  -10.8053    0.3738 O   0  3  0  0  0  0  0  0  0  0  0  0
    3.8787  -12.7521   -0.6535 C   0  0  0  0  0  0  0  0  0  0  0  0
    3.4133  -13.6325    0.3851 O   0  0  0  0  0  0  0  0  0  0  0  0
    2.6557  -13.4826   -0.8295 O   0  0  0  0  0  0  0  0  0  0  0  0
    5.1879  -10.6695   -3.2145 O   0  0  0  0  0  0  0  0  0  0  0  0
    0.4796   -7.3694    2.9816 C   0  0  0  0  0  0  0  0  0  0  0  0
    0.0231   -8.4567    3.7441 C   0  0  0  0  0  0  0  0  0  0  0  0
   -0.8653   -8.2944    4.7325 N   0  3  0  0  0  0  0  0  0  0  0  0
   -1.3053   -9.3725    5.4126 F   0  0  0  0  0  0  0  0  0  0  0  0
   -1.2920   -7.1071    5.1038 N   0  0  0  0  0  0  0  0  0  0  0  0
   -0.9260   -6.0207    4.4284 C   0  0  0  0  0  0  0  0  0  0  0  0
   -0.1170   -6.0817    3.2699 C   0  0  0  0  0  0  0  0  0  0  0  0
    0.0229   -4.8434    2.5374 C   0  0  0  0  0  0  0  0  0  0  0  0
   -0.3805   -3.6067    3.0807 C   0  0  0  0  0  0  0  0  0  0  0  0
   -1.0140   -3.5608    4.3100 C   0  0  0  0  0  0  0  0  0  0  0  0
   -1.3447   -4.7747    4.9166 C   0  0  0  0  0  0  0  0  0  0  0  0
   -2.0627   -4.7351    6.0475 F   0  0  0  0  0  0  0  0  0  0  0  0
   -1.3937   -2.3919    4.9289 O   0  0  0  0  0  0  0  0  0  0  0  0
   -0.6864   -1.1338    4.6876 C   0  0  2  0  0  0  0  0  0  0  0  0
   -0.2405   -1.1265    3.3061 C   0  0  0  0  0  0  0  0  0  0  0  0
    0.1388   -0.4114    2.3268 O   0  3  0  0  0  0  0  0  0  0  0  0
    0.3302   -1.6092    1.5625 O   0  3  0  0  0  0  0  0  0  0  0  0
   -0.0962   -2.3055    2.5490 C   0  0  0  0  0  0  0  0  0  0  0  0
    0.4159   -0.9492    5.6983 C   0  0  1  0  0  0  0  0  0  0  0  0
    0.0185   -0.9401    7.0679 O   0  0  0  0  0  0  0  0  0  0  0  0
    1.6461   -1.5519    5.4225 O   0  0  0  0  0  0  0  0  0  0  0  0
    1.6261   -0.1896    5.3010 C   0  0  0  0  0  0  0  0  0  0  0  0
    1.6675    0.4075    4.2366 O   0  0  0  0  0  0  0  0  0  0  0  0
    3.3108   -3.2614    2.4505 C   0  0  0  0  0  0  0  0  0  0  0  0
    2.2941   -3.0460    3.1163 O   0  0  0  0  0  0  0  0  0  0  0  0
    4.0806   -2.0895    1.9193 C   0  0  0  0  0  0  0  0  0  0  0  0
    3.6243   -0.9848    2.1725 O   0  0  0  0  0  0  0  0  0  0  0  0
    5.1424   -2.3486    0.8723 C   0  0  0  0  0  0  0  0  0  0  0  0
    6.1627   -1.7018    0.8069 O   0  0  0  0  0  0  0  0  0  0  0  0
  1  2  1  0  0  0  0
  2  3  2  0  0  0  0
  3  4  1  0  0  0  0
  3 53  1  0  0  0  0
  4  5  1  0  0  0  0
  5  6  1  6  0  0  0
  5 49  1  0  0  0  0
  6  7  1  0  0  0  0
  7  8  2  0  0  0  0
  7 12  1  0  0  0  0
  8  9  1  0  0  0  0
  8 26  1  0  0  0  0
  9 10  1  0  0  0  0
 10 11  2  0  0  0  0
 10 21  1  0  0  0  0
 11 12  1  0  0  0  0
 11 13  1  0  0  0  0
 13 14  1  0  0  0  0
 13 19  1  0  0  0  0
 14 15  1  0  0  0  0
 15 16  2  0  0  0  0
 15 17  1  0  0  0  0
 17 18  1  0  0  0  0
 18 19  1  0  0  0  0
 18 25  1  0  0  0  0
 19 20  2  0  0  0  0
 20 21  1  0  0  0  0
 20 22  1  0  0  0  0
 22 23  1  0  0  0  0
 22 24  1  0  0  0  0
 23 24  1  0  0  0  0
 26 27  2  0  0  0  0
 26 32  1  0  0  0  0
 27 28  1  0  0  0  0
 28 29  1  0  0  0  0
 28 30  2  0  0  0  0
 30 31  1  0  0  0  0
 31 32  2  0  0  0  0
 31 36  1  0  0  0  0
 32 33  1  0  0  0  0
 33 34  2  0  0  0  0
 34 35  1  0  0  0  0
 34 43  1  0  0  0  0
 35 36  2  0  0  0  0
 35 38  1  0  0  0  0
 36 37  1  0  0  0  0
 39 38  1  1  0  0  0
 39 40  1  0  0  0  0
 39 44  1  0  0  0  0
 40 41  2  0  0  0  0
 40 43  1  0  0  0  0
 41 42  1  0  0  0  0
 42 43  2  0  0  0  0
 44 45  1  1  0  0  0
 44 46  1  0  0  0  0
 44 47  1  0  0  0  0
 46 47  1  0  0  0  0
 47 48  2  0  0  0  0
 49 50  2  0  0  0  0
 49 51  1  0  0  0  0
 51 52  2  0  0  0  0
 51 53  1  0  0  0  0
 53 54  2  0  0  0  0
M  CHG  4  21   1  28   1  41   1  42   1
M  END
$$$$