
 OpenBabel11212015303D

 54 62  0  0  1  0  0  0  0  0999 V2000
    3.7985    4.7654    6.4013 O   0  0  0  0  0  0  0  0  0  0  0  0
    3.4496    4.6401    5.0833 C   0  0  0  0  0  0  0  0  0  0  0  0
    3.4611    3.4698    4.4374 C   0  0  0  0  0  0  0  0  0  0  0  0
    3.8906    2.3046    5.0434 O   0  0  0  0  0  0  0  0  0  0  0  0
    3.0098    1.2091    4.8769 C   0  0  2  0  0  0  0  0  0  0  0  0
    3.6922   -0.0195    5.2317 O   0  0  0  0  0  0  0  0  0  0  0  0
    3.5809   -0.4636    6.5459 C   0  0  0  0  0  0  0  0  0  0  0  0
    3.6657   -1.7775    6.8701 C   0  0  0  0  0  0  0  0  0  0  0  0
    3.5371   -2.2154    8.1882 O   0  0  0  0  0  0  0  0  0  0  0  0
    3.5635   -1.3136    9.2339 C   0  0  0  0  0  0  0  0  0  0  0  0
    3.4825    0.0023    9.0050 C   0  0  0  0  0  0  0  0  0  0  0  0
    3.3942    0.5665    7.6320 C   0  0  0  0  0  0  0  0  0  0  0  0
    3.5094    0.9834   10.1367 C   0  0  3  0  0  0  0  0  0  0  0  0
    2.2859    1.7024   10.1022 O   0  0  0  0  0  0  0  0  0  0  0  0
    2.0646    2.6229   11.0728 C   0  0  0  0  0  0  0  0  0  0  0  0
    1.2160    3.4925   10.9338 O   0  0  0  0  0  0  0  0  0  0  0  0
    2.8244    2.5317   12.1910 O   0  0  0  0  0  0  0  0  0  0  0  0
    3.6675    1.4233   12.5022 C   0  0  3  0  0  0  0  0  0  0  0  0
    3.6289    0.3632   11.4758 C   0  0  0  0  0  0  0  0  0  0  0  0
    3.7111   -0.9756   11.6466 C   0  0  0  0  0  0  0  0  0  0  0  0
    3.6744   -1.7920   10.5183 N   0  0  0  0  0  0  0  0  0  0  0  0
    3.8697   -1.6414   12.9613 C   0  0  0  0  0  0  0  0  0  0  0  0
    2.7331   -2.0116   13.7572 O   0  0  0  0  0  0  0  0  0  0  0  0
    3.5593   -3.0305   13.1601 O   0  0  0  0  0  0  0  0  0  0  0  0
    5.0095    1.8850   12.5420 O   0  0  0  0  0  0  0  0  0  0  0  0
    3.8677   -2.8853    5.8877 C   0  0  0  0  0  0  0  0  0  0  0  0
    3.3039   -2.7549    4.6153 C   0  0  0  0  0  0  0  0  0  0  0  0
    3.4893   -3.7391    3.6764 C   0  0  0  0  0  0  0  0  0  0  0  0
    2.8683   -3.6081    2.5004 O   0  3  0  0  0  0  0  0  0  0  0  0
    3.0815   -4.6725    1.6974 O   0  0  0  0  0  0  0  0  0  0  0  0
    4.2381   -4.8364    3.8970 N   0  0  0  0  0  0  0  0  0  0  0  0
    4.7545   -5.0186    5.1260 C   0  0  0  0  0  0  0  0  0  0  0  0
    4.5526   -4.1018    6.1852 C   0  0  0  0  0  0  0  0  0  0  0  0
    5.0049   -4.4887    7.4700 C   0  0  0  0  0  0  0  0  0  0  0  0
    5.6116   -5.7196    7.7033 C   0  0  0  0  0  0  0  0  0  0  0  0
    5.9338   -6.5367    6.6425 C   0  0  0  0  0  0  0  0  0  0  0  0
    5.4920   -6.1789    5.3641 C   0  0  0  0  0  0  0  0  0  0  0  0
    6.6295   -7.7054    6.7542 O   0  0  0  0  0  0  0  0  0  0  0  0
    7.2248   -7.9944    8.0353 C   0  0  2  0  0  0  0  0  0  0  0  0
    6.4086   -7.5570    9.2302 C   0  0  0  0  0  0  0  0  0  0  0  0
    6.2316   -8.2210   10.2390 O   0  0  0  0  0  0  0  0  0  0  0  0
    5.8054   -6.1831    9.0819 C   0  0  0  0  0  0  0  0  0  0  0  0
    5.4148   -5.5318   10.0364 O   0  0  0  0  0  0  0  0  0  0  0  0
    8.6106   -7.4409    8.1225 C   0  0  1  0  0  0  0  0  0  0  0  0
    8.7484   -6.0067    7.9529 O   0  0  0  0  0  0  0  0  0  0  0  0
    9.4068   -8.0178    9.1603 O   0  0  0  0  0  0  0  0  0  0  0  0
    9.8327   -8.2228    7.8954 C   0  0  0  0  0  0  0  0  0  0  0  0
   10.8552   -7.8872    7.3584 O   0  0  0  0  0  0  0  0  0  0  0  0
    2.4916    0.9705    3.4623 C   0  0  0  0  0  0  0  0  0  0  0  0
    1.8337   -0.0047    3.1101 O   0  0  0  0  0  0  0  0  0  0  0  0
    2.8797    2.0460    2.4868 C   0  0  0  0  0  0  0  0  0  0  0  0
    3.1017    1.7478    1.3249 O   0  0  0  0  0  0  0  0  0  0  0  0
    3.0502    3.4517    3.0096 C   0  0  0  0  0  0  0  0  0  0  0  0
    2.8214    4.4306    2.3255 O   0  0  0  0  0  0  0  0  0  0  0  0
  1  2  1  0  0  0  0
  2  3  2  0  0  0  0
  3  4  1  0  0  0  0
  3 53  1  0  0  0  0
  4  5  1  0  0  0  0
  5  6  1  6  0  0  0
  5 49  1  0  0  0  0
  6  7  1  0  0  0  0
  7  8  2  0  0  0  0
  7 12  1  0  0  0  0
  8  9  1  0  0  0  0
  8 26  1  0  0  0  0
  9 10  1  0  0  0  0
 10 11  2  0  0  0  0
 10 21  1  0  0  0  0
 11 12  1  0  0  0  0
 11 13  1  0  0  0  0
 13 14  1  0  0  0  0
 13 19  1  0  0  0  0
 14 15  1  0  0  0  0
 15 16  2  0  0  0  0
 15 17  1  0  0  0  0
 17 18  1  0  0  0  0
 18 19  1  0  0  0  0
 18 25  1  0  0  0  0
 19 20  2  0  0  0  0
 20 21  1  0  0  0  0
 20 22  1  0  0  0  0
 22 23  1  0  0  0  0
 22 24  1  0  0  0  0
 23 24  1  0  0  0  0
 26 27  2  0  0  0  0
 26 33  1  0  0  0  0
 27 28  1  0  0  0  0
 28 29  1  0  0  0  0
 28 31  2  0  0  0  0
 29 30  2  0  0  0  0
 31 32  1  0  0  0  0
 32 33  2  0  0  0  0
 32 37  1  0  0  0  0
 33 34  1  0  0  0  0
 34 35  2  0  0  0  0
 35 36  1  0  0  0  0
 35 42  1  0  0  0  0
 36 37  2  0  0  0  0
 36 38  1  0  0  0  0
 39 38  1  6  0  0  0
 39 40  1  0  0  0  0
 39 44  1  0  0  0  0
 40 41  2  0  0  0  0
 40 42  1  0  0  0  0
 42 43  2  0  0  0  0
 44 45  1  6  0  0  0
 44 46  1  0  0  0  0
 44 47  1  0  0  0  0
 46 47  1  0  0  0  0
 47 48  2  0  0  0  0
 49 50  2  0  0  0  0
 49 51  1  0  0  0  0
 51 52  2  0  0  0  0
 51 53  1  0  0  0  0
 53 54  2  0  0  0  0
M  CHG  1  29   1
M  END
$$$$