
 OpenBabel09222023383D

 51 59  0  0  1  0  0  0  0  0999 V2000
    6.7696   -5.4652    2.2765 O   0  0  0  0  0  0  0  0  0  0  0  0
    6.1783   -4.8951    3.4443 C   0  0  0  0  0  0  0  0  0  0  0  0
    4.6558   -5.0163    3.3137 C   0  0  2  0  0  0  0  0  0  0  0  0
    4.2034   -4.3028    2.0971 N   0  0  0  0  0  0  0  0  0  0  0  0
    2.7735   -4.5016    1.8678 C   0  0  2  0  0  0  0  0  0  0  0  0
    2.4229   -4.1455    0.5336 O   0  0  0  0  0  0  0  0  0  0  0  0
    2.4943   -5.1507   -0.4304 C   0  0  0  0  0  0  0  0  0  0  0  0
    2.7674   -4.8842   -1.7248 C   0  0  0  0  0  0  0  0  0  0  0  0
    2.8318   -5.8529   -2.7199 O   0  0  0  0  0  0  0  0  0  0  0  0
    2.4822   -7.1513   -2.4225 C   0  0  0  0  0  0  0  0  0  0  0  0
    2.0829   -7.5312   -1.1582 C   0  0  0  0  0  0  0  0  0  0  0  0
    2.1193   -6.5507   -0.0359 C   0  0  0  0  0  0  0  0  0  0  0  0
    1.7227   -8.8661   -0.9732 C   0  0  0  0  0  0  0  0  0  0  0  0
    1.2798   -9.3176    0.2774 N   0  0  0  0  0  0  0  0  0  0  0  0
    1.0165  -10.6127    0.5855 C   0  0  0  0  0  0  0  0  0  0  0  0
    0.6593  -10.9376    1.7124 O   0  0  0  0  0  0  0  0  0  0  0  0
    1.2040  -11.5262   -0.3937 N   0  0  0  0  0  0  0  0  0  0  0  0
    1.3628  -11.1926   -1.7871 C   0  0  0  0  0  0  0  0  0  0  0  0
    1.8007   -9.7793   -2.0254 C   0  0  0  0  0  0  0  0  0  0  0  0
    2.2255   -9.3201   -3.2800 C   0  0  0  0  0  0  0  0  0  0  0  0
    2.5683   -8.0123   -3.4584 N   0  0  0  0  0  0  0  0  0  0  0  0
    2.3661  -10.2140   -4.4918 C   0  0  0  0  0  0  0  0  0  0  0  0
    1.4529  -11.3047   -4.6872 O   0  0  0  0  0  0  0  0  0  0  0  0
    1.3379  -10.1182   -5.4921 O   0  0  0  0  0  0  0  0  0  0  0  0
    2.9366   -3.5179   -2.2516 C   0  0  0  0  0  0  0  0  0  0  0  0
    1.7775   -2.9795   -2.7155 N   0  0  0  0  0  0  0  0  0  0  0  0
    1.8300   -1.7498   -3.2564 C   0  0  0  0  0  0  0  0  0  0  0  0
    2.9916   -1.0094   -3.3604 C   0  0  0  0  0  0  0  0  0  0  0  0
    4.1857   -1.5541   -2.8783 C   0  0  0  0  0  0  0  0  0  0  0  0
    4.1823   -2.8511   -2.3152 C   0  0  0  0  0  0  0  0  0  0  0  0
    5.4157   -3.3860   -1.8821 C   0  0  0  0  0  0  0  0  0  0  0  0
    6.5959   -2.6339   -1.9720 C   0  0  0  0  0  0  0  0  0  0  0  0
    6.5897   -1.3215   -2.4550 C   0  0  0  0  0  0  0  0  0  0  0  0
    5.3838   -0.8172   -2.9520 C   0  0  0  0  0  0  0  0  0  0  0  0
    7.7407   -0.5484   -2.5384 N   0  0  0  0  0  0  0  0  0  0  0  0
    8.9472   -0.9371   -1.7793 C   0  0  2  0  0  0  0  0  0  0  0  0
    9.1383   -2.4331   -1.7975 C   0  0  0  0  0  0  0  0  0  0  0  0
   10.2134   -2.9957   -1.9579 O   0  0  0  0  0  0  0  0  0  0  0  0
    7.8755   -3.2296   -1.5410 C   0  0  0  0  0  0  0  0  0  0  0  0
    7.9293   -4.3210   -0.9931 O   0  0  0  0  0  0  0  0  0  0  0  0
    8.9069   -0.4191   -0.3664 C   0  0  1  0  0  0  0  0  0  0  0  0
    7.7862   -0.8079    0.4595 O   0  0  0  0  0  0  0  0  0  0  0  0
   10.1759   -0.3791    0.3077 O   0  0  0  0  0  0  0  0  0  0  0  0
    9.6118    0.7936    0.0030 C   0  0  0  0  0  0  0  0  0  0  0  0
    9.9886    1.7348   -0.6648 O   0  0  0  0  0  0  0  0  0  0  0  0
    2.0299   -3.6927    2.9262 C   0  0  0  0  0  0  0  0  0  0  0  0
    1.0704   -2.9599    2.7418 O   0  0  0  0  0  0  0  0  0  0  0  0
    2.5406   -3.9790    4.3239 C   0  0  0  0  0  0  0  0  0  0  0  0
    1.7798   -3.8833    5.2769 O   0  0  0  0  0  0  0  0  0  0  0  0
    3.9641   -4.4675    4.5448 C   0  0  0  0  0  0  0  0  0  0  0  0
    4.4452   -4.4986    5.6694 O   0  0  0  0  0  0  0  0  0  0  0  0
  1  2  1  0  0  0  0
  3  4  1  0  0  0  0
  3 50  1  0  0  0  0
  3  2  1  1  0  0  0
  4  5  1  0  0  0  0
  5  6  1  6  0  0  0
  5 46  1  0  0  0  0
  6  7  1  0  0  0  0
  7  8  2  0  0  0  0
  7 12  1  0  0  0  0
  8  9  1  0  0  0  0
  8 25  1  0  0  0  0
  9 10  1  0  0  0  0
 10 11  2  0  0  0  0
 10 21  1  0  0  0  0
 11 12  1  0  0  0  0
 11 13  1  0  0  0  0
 13 14  1  0  0  0  0
 13 19  2  0  0  0  0
 14 15  1  0  0  0  0
 15 16  2  0  0  0  0
 15 17  1  0  0  0  0
 17 18  1  0  0  0  0
 18 19  1  0  0  0  0
 19 20  1  0  0  0  0
 20 21  2  0  0  0  0
 20 22  1  0  0  0  0
 22 23  1  0  0  0  0
 22 24  1  0  0  0  0
 23 24  1  0  0  0  0
 25 26  2  0  0  0  0
 25 30  1  0  0  0  0
 26 27  1  0  0  0  0
 27 28  2  0  0  0  0
 28 29  1  0  0  0  0
 29 30  2  0  0  0  0
 29 34  1  0  0  0  0
 30 31  1  0  0  0  0
 31 32  2  0  0  0  0
 32 33  1  0  0  0  0
 32 39  1  0  0  0  0
 33 34  2  0  0  0  0
 33 35  1  0  0  0  0
 36 35  1  1  0  0  0
 36 37  1  0  0  0  0
 36 41  1  0  0  0  0
 37 38  2  0  0  0  0
 37 39  1  0  0  0  0
 39 40  2  0  0  0  0
 41 42  1  1  0  0  0
 41 43  1  0  0  0  0
 41 44  1  0  0  0  0
 43 44  1  0  0  0  0
 44 45  2  0  0  0  0
 46 47  2  0  0  0  0
 46 48  1  0  0  0  0
 48 49  2  0  0  0  0
 48 50  1  0  0  0  0
 50 51  2  0  0  0  0
M  END
$$$$