
 OpenBabel11172005323D

 53 61  0  0  1  0  0  0  0  0999 V2000
    3.5372   -3.4545   -2.1555 O   0  0  0  0  0  0  0  0  0  0  0  0
    3.8876   -2.2608   -1.5809 C   0  0  0  0  0  0  0  0  0  0  0  0
    3.6148   -1.9702   -0.3028 C   0  0  0  0  0  0  0  0  0  0  0  0
    2.9133   -2.8698    0.4813 O   0  0  0  0  0  0  0  0  0  0  0  0
    3.0588   -2.7455    1.8943 C   0  0  2  0  0  0  0  0  0  0  0  0
    2.2003   -3.6599    2.5877 O   0  0  0  0  0  0  0  0  0  0  0  0
    2.4129   -5.0139    2.3586 C   0  0  0  0  0  0  0  0  0  0  0  0
    1.3906   -5.8946    2.4079 C   0  0  0  0  0  0  0  0  0  0  0  0
    1.5529   -7.2619    2.2304 O   0  0  0  0  0  0  0  0  0  0  0  0
    2.8320   -7.7786    2.1153 C   0  0  0  0  0  0  0  0  0  0  0  0
    3.9262   -6.9979    2.1016 C   0  0  0  0  0  0  0  0  0  0  0  0
    3.8273   -5.5060    2.1572 C   0  0  0  0  0  0  0  0  0  0  0  0
    5.3040   -7.6114    2.0139 C   0  0  3  0  0  0  0  0  0  0  0  0
    6.0200   -7.2033    3.1795 O   0  0  0  0  0  0  0  0  0  0  0  0
    7.1516   -7.8340    3.5768 C   0  0  0  0  0  0  0  0  0  0  0  0
    7.8427   -7.3796    4.4794 O   0  0  0  0  0  0  0  0  0  0  0  0
    7.4743   -8.9984    2.9639 O   0  0  0  0  0  0  0  0  0  0  0  0
    6.6859   -9.6101    1.9510 C   0  0  3  0  0  0  0  0  0  0  0  0
    5.3025   -9.0986    1.9564 C   0  0  0  0  0  0  0  0  0  0  0  0
    4.1574   -9.8168    1.9427 C   0  0  0  0  0  0  0  0  0  0  0  0
    2.9513   -9.1415    2.0298 N   0  0  0  0  0  0  0  0  0  0  0  0
    4.0839  -11.2918    1.8491 C   0  0  0  0  0  0  0  0  0  0  0  0
    2.9958  -11.9608    1.1881 O   0  0  0  0  0  0  0  0  0  0  0  0
    4.3157  -11.9814    0.6105 O   0  0  0  0  0  0  0  0  0  0  0  0
    7.2673   -9.3357    0.6904 O   0  0  0  0  0  0  0  0  0  0  0  0
    0.0035   -5.5003    2.7013 C   0  0  0  0  0  0  0  0  0  0  0  0
   -0.3915   -5.4484    4.0295 C   0  0  0  0  0  0  0  0  0  0  0  0
   -1.6235   -5.0714    4.4092 N   0  0  0  0  0  0  0  0  0  0  0  0
   -2.5214   -4.6874    3.4577 N   0  0  0  0  0  0  0  0  0  0  0  0
   -2.2098   -4.7057    2.1486 C   0  0  0  0  0  0  0  0  0  0  0  0
   -0.9416   -5.1493    1.7128 C   0  0  0  0  0  0  0  0  0  0  0  0
   -0.6822   -5.2167    0.3244 C   0  0  0  0  0  0  0  0  0  0  0  0
   -1.6345   -4.7817   -0.5990 C   0  0  0  0  0  0  0  0  0  0  0  0
   -1.3660   -4.8575   -2.0431 C   0  0  0  0  0  0  0  0  0  0  0  0
   -0.4039   -5.4541   -2.4984 O   0  0  0  0  0  0  0  0  0  0  0  0
   -2.3652   -4.1684   -2.9471 C   0  0  0  0  0  0  0  0  0  0  0  0
   -2.4114   -4.4029   -4.1463 O   0  0  0  0  0  0  0  0  0  0  0  0
   -3.2439   -3.1709   -2.2368 C   0  0  1  0  0  0  0  0  0  0  0  0
   -3.7687   -3.6832   -1.0048 O   0  0  0  0  0  0  0  0  0  0  0  0
   -2.8425   -4.2509   -0.1622 C   0  0  0  0  0  0  0  0  0  0  0  0
   -3.1667   -4.2855    1.2044 C   0  0  0  0  0  0  0  0  0  0  0  0
   -4.3757   -3.6737    1.6414 N   0  0  0  0  0  0  0  0  0  0  0  0
   -2.5429   -1.8616   -2.0401 C   0  0  1  0  0  0  0  0  0  0  0  0
   -1.2858   -1.8870   -1.3172 O   0  0  0  0  0  0  0  0  0  0  0  0
   -2.5772   -1.0045   -3.1820 O   0  0  0  0  0  0  0  0  0  0  0  0
   -3.2085   -0.5578   -2.0750 C   0  0  0  0  0  0  0  0  0  0  0  0
   -2.9948    0.4348   -1.4215 O   0  0  0  0  0  0  0  0  0  0  0  0
    2.7231   -1.3285    2.3174 C   0  0  0  0  0  0  0  0  0  0  0  0
    1.8682   -0.9666    3.1087 O   0  0  0  0  0  0  0  0  0  0  0  0
    3.6060   -0.3353    1.6198 C   0  0  0  0  0  0  0  0  0  0  0  0
    4.0224    0.6438    2.2168 O   0  0  0  0  0  0  0  0  0  0  0  0
    4.0339   -0.6289    0.1992 C   0  0  0  0  0  0  0  0  0  0  0  0
    4.6760    0.1775   -0.4538 O   0  0  0  0  0  0  0  0  0  0  0  0
  1  2  1  0  0  0  0
  2  3  2  0  0  0  0
  3  4  1  0  0  0  0
  3 52  1  0  0  0  0
  4  5  1  0  0  0  0
  5  6  1  1  0  0  0
  5 48  1  0  0  0  0
  6  7  1  0  0  0  0
  7  8  2  0  0  0  0
  7 12  1  0  0  0  0
  8  9  1  0  0  0  0
  8 26  1  0  0  0  0
  9 10  1  0  0  0  0
 10 11  2  0  0  0  0
 10 21  1  0  0  0  0
 11 12  1  0  0  0  0
 11 13  1  0  0  0  0
 13 14  1  0  0  0  0
 13 19  1  0  0  0  0
 14 15  1  0  0  0  0
 15 16  2  0  0  0  0
 15 17  1  0  0  0  0
 17 18  1  0  0  0  0
 18 19  1  0  0  0  0
 18 25  1  0  0  0  0
 19 20  2  0  0  0  0
 20 21  1  0  0  0  0
 20 22  1  0  0  0  0
 22 23  1  0  0  0  0
 22 24  1  0  0  0  0
 23 24  1  0  0  0  0
 26 27  2  0  0  0  0
 26 31  1  0  0  0  0
 27 28  1  0  0  0  0
 28 29  2  0  0  0  0
 29 30  1  0  0  0  0
 30 31  2  0  0  0  0
 30 41  1  0  0  0  0
 31 32  1  0  0  0  0
 32 33  2  0  0  0  0
 33 34  1  0  0  0  0
 33 40  1  0  0  0  0
 34 35  2  0  0  0  0
 34 36  1  0  0  0  0
 36 37  2  0  0  0  0
 38 36  1  1  0  0  0
 38 39  1  0  0  0  0
 38 43  1  0  0  0  0
 39 40  1  0  0  0  0
 40 41  2  0  0  0  0
 41 42  1  0  0  0  0
 43 44  1  1  0  0  0
 43 45  1  0  0  0  0
 43 46  1  0  0  0  0
 45 46  1  0  0  0  0
 46 47  2  0  0  0  0
 48 49  2  0  0  0  0
 48 50  1  0  0  0  0
 50 51  2  0  0  0  0
 50 52  1  0  0  0  0
 52 53  2  0  0  0  0
M  END
$$$$