
 OpenBabel11212001203D

 52 60  0  0  1  0  0  0  0  0999 V2000
   -1.4177    3.6524   -4.5027 O   0  0  0  0  0  0  0  0  0  0  0  0
   -1.3480    2.8080   -3.4273 C   0  0  0  0  0  0  0  0  0  0  0  0
   -0.7415    1.6155   -3.4678 C   0  0  0  0  0  0  0  0  0  0  0  0
   -0.2041    1.1001   -4.6312 O   0  0  0  0  0  0  0  0  0  0  0  0
    1.0887    0.5148   -4.4715 C   0  0  2  0  0  0  0  0  0  0  0  0
    1.5781   -0.0016   -5.7306 O   0  0  0  0  0  0  0  0  0  0  0  0
    1.7197    0.9015   -6.7869 C   0  0  0  0  0  0  0  0  0  0  0  0
    1.6466    0.5071   -8.0824 C   0  0  0  0  0  0  0  0  0  0  0  0
    1.8306    1.3793   -9.1528 O   0  0  0  0  0  0  0  0  0  0  0  0
    2.1297    2.7067   -8.9149 C   0  0  0  0  0  0  0  0  0  0  0  0
    2.2663    3.1991   -7.6735 C   0  0  0  0  0  0  0  0  0  0  0  0
    2.0491    2.3467   -6.4640 C   0  0  0  0  0  0  0  0  0  0  0  0
    2.5666    4.6632   -7.4629 C   0  0  3  0  0  0  0  0  0  0  0  0
    3.8258    4.7785   -6.8091 O   0  0  0  0  0  0  0  0  0  0  0  0
    4.2803    6.0313   -6.5479 C   0  0  0  0  0  0  0  0  0  0  0  0
    5.1802    6.2340   -5.7446 O   0  0  0  0  0  0  0  0  0  0  0  0
    3.6493    7.0496   -7.1840 O   0  0  0  0  0  0  0  0  0  0  0  0
    2.9702    6.8681   -8.4244 C   0  0  3  0  0  0  0  0  0  0  0  0
    2.6643    5.4535   -8.7189 C   0  0  0  0  0  0  0  0  0  0  0  0
    2.5014    4.8899   -9.9364 C   0  0  0  0  0  0  0  0  0  0  0  0
    2.2609    3.5273  -10.0063 N   0  0  0  0  0  0  0  0  0  0  0  0
    2.5237    5.6311  -11.2180 C   0  0  0  0  0  0  0  0  0  0  0  0
    3.7436    5.8780  -11.9326 O   0  0  0  0  0  0  0  0  0  0  0  0
    2.7604    4.9754  -12.4765 O   0  0  0  0  0  0  0  0  0  0  0  0
    1.7268    7.5483   -8.3436 O   0  0  0  0  0  0  0  0  0  0  0  0
    1.4812   -0.8917   -8.5463 C   0  0  0  0  0  0  0  0  0  0  0  0
    2.6788   -1.5671   -8.7892 C   0  0  0  0  0  0  0  0  0  0  0  0
    2.7722   -3.1968   -9.4490 S   0  3  0  0  0  0  0  0  0  0  0  0
    1.2252   -3.6721   -9.4385 N   0  0  0  0  0  0  0  0  0  0  0  0
    0.1988   -2.8774   -9.1726 C   0  0  0  0  0  0  0  0  0  0  0  0
    0.2250   -1.5049   -8.7897 C   0  0  0  0  0  0  0  0  0  0  0  0
   -1.0175   -0.8265   -8.6709 C   0  0  0  0  0  0  0  0  0  0  0  0
   -2.2330   -1.5101   -8.8210 C   0  0  0  0  0  0  0  0  0  0  0  0
   -2.2345   -2.8726   -9.0661 C   0  0  0  0  0  0  0  0  0  0  0  0
   -1.0223   -3.5208   -9.2810 C   0  0  0  0  0  0  0  0  0  0  0  0
   -3.3524   -3.6587   -9.1213 O   0  0  0  0  0  0  0  0  0  0  0  0
   -4.5186   -3.1351   -8.4737 C   0  0  2  0  0  0  0  0  0  0  0  0
   -4.7667   -1.6768   -8.7694 C   0  0  0  0  0  0  0  0  0  0  0  0
   -5.8704   -1.1998   -8.9951 O   0  0  0  0  0  0  0  0  0  0  0  0
   -3.5233   -0.8108   -8.7274 C   0  0  0  0  0  0  0  0  0  0  0  0
   -3.6004    0.4042   -8.6434 O   0  0  0  0  0  0  0  0  0  0  0  0
   -4.4896   -3.4004   -6.9992 C   0  0  1  0  0  0  0  0  0  0  0  0
   -3.3916   -2.8246   -6.2480 O   0  0  0  0  0  0  0  0  0  0  0  0
   -5.7683   -3.3341   -6.3630 O   0  0  0  0  0  0  0  0  0  0  0  0
   -5.1581   -4.5363   -6.3608 C   0  0  0  0  0  0  0  0  0  0  0  0
   -4.8059   -5.2209   -5.4300 O   0  0  0  0  0  0  0  0  0  0  0  0
    1.1113   -0.6040   -3.4228 C   0  0  0  0  0  0  0  0  0  0  0  0
    1.9660   -1.4749   -3.3290 O   0  0  0  0  0  0  0  0  0  0  0  0
    0.0305   -0.4849   -2.3704 C   0  0  0  0  0  0  0  0  0  0  0  0
   -0.2535   -1.4307   -1.6517 O   0  0  0  0  0  0  0  0  0  0  0  0
   -0.7030    0.8234   -2.2147 C   0  0  0  0  0  0  0  0  0  0  0  0
   -1.1662    1.1871   -1.1472 O   0  0  0  0  0  0  0  0  0  0  0  0
  1  2  1  0  0  0  0
  2  3  2  0  0  0  0
  3  4  1  0  0  0  0
  3 51  1  0  0  0  0
  4  5  1  0  0  0  0
  5  6  1  6  0  0  0
  5 47  1  0  0  0  0
  6  7  1  0  0  0  0
  7  8  2  0  0  0  0
  7 12  1  0  0  0  0
  8  9  1  0  0  0  0
  8 26  1  0  0  0  0
  9 10  1  0  0  0  0
 10 11  2  0  0  0  0
 10 21  1  0  0  0  0
 11 12  1  0  0  0  0
 11 13  1  0  0  0  0
 13 14  1  0  0  0  0
 13 19  1  0  0  0  0
 14 15  1  0  0  0  0
 15 16  2  0  0  0  0
 15 17  1  0  0  0  0
 17 18  1  0  0  0  0
 18 19  1  0  0  0  0
 18 25  1  0  0  0  0
 19 20  2  0  0  0  0
 20 21  1  0  0  0  0
 20 22  1  0  0  0  0
 22 23  1  0  0  0  0
 22 24  1  0  0  0  0
 23 24  1  0  0  0  0
 26 27  2  0  0  0  0
 26 31  1  0  0  0  0
 27 28  1  0  0  0  0
 28 29  2  0  0  0  0
 29 30  1  0  0  0  0
 30 31  2  0  0  0  0
 30 35  1  0  0  0  0
 31 32  1  0  0  0  0
 32 33  2  0  0  0  0
 33 34  1  0  0  0  0
 33 40  1  0  0  0  0
 34 35  2  0  0  0  0
 34 36  1  0  0  0  0
 37 36  1  1  0  0  0
 37 38  1  0  0  0  0
 37 42  1  0  0  0  0
 38 39  2  0  0  0  0
 38 40  1  0  0  0  0
 40 41  2  0  0  0  0
 42 43  1  1  0  0  0
 42 44  1  0  0  0  0
 42 45  1  0  0  0  0
 44 45  1  0  0  0  0
 45 46  2  0  0  0  0
 47 48  2  0  0  0  0
 47 49  1  0  0  0  0
 49 50  2  0  0  0  0
 49 51  1  0  0  0  0
 51 52  2  0  0  0  0
M  CHG  1  28   1
M  END
$$$$