
 OpenBabel11152013143D

 54 62  0  0  1  0  0  0  0  0999 V2000
    6.0424    4.6945    4.2772 O   0  0  0  0  0  0  0  0  0  0  0  0
    5.4176    5.0285    3.1029 C   0  0  0  0  0  0  0  0  0  0  0  0
    4.4120    4.3274    2.5624 C   0  0  0  0  0  0  0  0  0  0  0  0
    3.9331    3.1980    3.1949 O   0  0  0  0  0  0  0  0  0  0  0  0
    2.5080    3.1256    3.1589 C   0  0  2  0  0  0  0  0  0  0  0  0
    2.0293    2.0004    3.9110 O   0  0  0  0  0  0  0  0  0  0  0  0
    2.3477    1.9469    5.2600 C   0  0  0  0  0  0  0  0  0  0  0  0
    2.5010    0.7622    5.8841 C   0  0  0  0  0  0  0  0  0  0  0  0
    2.7891    0.6449    7.2359 O   0  0  0  0  0  0  0  0  0  0  0  0
    2.9857    1.7872    7.9992 C   0  0  0  0  0  0  0  0  0  0  0  0
    2.8280    3.0169    7.4812 C   0  0  0  0  0  0  0  0  0  0  0  0
    2.4486    3.2296    6.0460 C   0  0  0  0  0  0  0  0  0  0  0  0
    3.0768    4.2458    8.3003 C   0  0  3  0  0  0  0  0  0  0  0  0
    1.8736    5.0056    8.3237 O   0  0  0  0  0  0  0  0  0  0  0  0
    1.7071    6.0175    9.2124 C   0  0  0  0  0  0  0  0  0  0  0  0
    0.7687    6.7967    9.1149 O   0  0  0  0  0  0  0  0  0  0  0  0
    2.6040    6.1182   10.2237 O   0  0  0  0  0  0  0  0  0  0  0  0
    3.6714    5.2046   10.4318 C   0  0  3  0  0  0  0  0  0  0  0  0
    3.4707    3.9441    9.6903 C   0  0  0  0  0  0  0  0  0  0  0  0
    3.6062    2.6867   10.1585 C   0  0  0  0  0  0  0  0  0  0  0  0
    3.3655    1.5945    9.3199 O   0  0  0  0  0  0  0  0  0  0  0  0
    4.0162    2.3511   11.5395 C   0  0  0  0  0  0  0  0  0  0  0  0
    3.0550    2.2247   12.5989 O   0  0  0  0  0  0  0  0  0  0  0  0
    3.7628    1.0630   12.1239 O   0  0  0  0  0  0  0  0  0  0  0  0
    4.8774    5.7851    9.9638 O   0  0  0  0  0  0  0  0  0  0  0  0
    2.3917   -0.5342    5.1970 C   0  0  0  0  0  0  0  0  0  0  0  0
    3.5616   -0.9988    4.7114 N   0  0  0  0  0  0  0  0  0  0  0  0
    3.5818   -2.1566    4.1222 N   0  0  0  0  0  0  0  0  0  0  0  0
    2.5020   -2.8982    4.0009 N   0  0  0  0  0  0  0  0  0  0  0  0
    1.3167   -2.4780    4.4706 C   0  0  0  0  0  0  0  0  0  0  0  0
    1.1950   -1.2460    5.1006 C   0  0  0  0  0  0  0  0  0  0  0  0
   -0.0694   -0.8106    5.5818 C   0  0  0  0  0  0  0  0  0  0  0  0
   -1.2023   -1.6133    5.4258 C   0  0  0  0  0  0  0  0  0  0  0  0
   -2.5197   -1.1313    5.8559 C   0  0  0  0  0  0  0  0  0  0  0  0
   -2.6678   -0.0987    6.4866 O   0  0  0  0  0  0  0  0  0  0  0  0
   -3.6922   -1.9810    5.4343 C   0  0  0  0  0  0  0  0  0  0  0  0
   -4.7819   -1.4841    5.1930 O   0  0  0  0  0  0  0  0  0  0  0  0
   -3.3648   -3.4490    5.3275 C   0  0  1  0  0  0  0  0  0  0  0  0
   -2.1252   -3.7448    4.6637 O   0  0  0  0  0  0  0  0  0  0  0  0
   -1.0935   -2.8602    4.8314 C   0  0  0  0  0  0  0  0  0  0  0  0
    0.1596   -3.2685    4.3536 C   0  0  0  0  0  0  0  0  0  0  0  0
    0.2575   -4.5053    3.7505 O   0  0  0  0  0  0  0  0  0  0  0  0
   -3.3992   -4.1171    6.6708 C   0  0  1  0  0  0  0  0  0  0  0  0
   -2.4442   -3.6493    7.6479 O   0  0  0  0  0  0  0  0  0  0  0  0
   -4.7088   -4.4038    7.1882 O   0  0  0  0  0  0  0  0  0  0  0  0
   -3.9570   -5.4504    6.8287 C   0  0  0  0  0  0  0  0  0  0  0  0
   -4.1357   -6.3515    6.0389 O   0  0  0  0  0  0  0  0  0  0  0  0
    2.0278    2.9918    1.7165 C   0  0  0  0  0  0  0  0  0  0  0  0
    1.1612    2.1820    1.3685 O   0  0  0  0  0  0  0  0  0  0  0  0
    2.5982    4.0249    0.7534 C   0  0  3  0  0  0  0  0  0  0  0  0
    3.8164    4.7928    1.2731 C   0  0  0  0  0  0  0  0  0  0  0  0
    4.2949    5.7538    0.6658 O   0  0  0  0  0  0  0  0  0  0  0  0
    1.5306    5.0074    0.4624 N   0  0  0  0  0  0  0  0  0  0  0  0
    2.8828    3.4547   -0.4528 F   0  0  0  0  0  0  0  0  0  0  0  0
  1  2  1  0  0  0  0
  2  3  2  0  0  0  0
  3  4  1  0  0  0  0
  3 51  1  0  0  0  0
  4  5  1  0  0  0  0
  5  6  1  1  0  0  0
  5 48  1  0  0  0  0
  6  7  1  0  0  0  0
  7  8  2  0  0  0  0
  7 12  1  0  0  0  0
  8  9  1  0  0  0  0
  8 26  1  0  0  0  0
  9 10  1  0  0  0  0
 10 11  2  0  0  0  0
 10 21  1  0  0  0  0
 11 12  1  0  0  0  0
 11 13  1  0  0  0  0
 13 14  1  0  0  0  0
 13 19  1  0  0  0  0
 14 15  1  0  0  0  0
 15 16  2  0  0  0  0
 15 17  1  0  0  0  0
 17 18  1  0  0  0  0
 18 19  1  0  0  0  0
 18 25  1  0  0  0  0
 19 20  2  0  0  0  0
 20 21  1  0  0  0  0
 20 22  1  0  0  0  0
 22 23  1  0  0  0  0
 22 24  1  0  0  0  0
 23 24  1  0  0  0  0
 26 27  2  0  0  0  0
 26 31  1  0  0  0  0
 27 28  1  0  0  0  0
 28 29  2  0  0  0  0
 29 30  1  0  0  0  0
 30 31  2  0  0  0  0
 30 41  1  0  0  0  0
 31 32  1  0  0  0  0
 32 33  2  0  0  0  0
 33 34  1  0  0  0  0
 33 40  1  0  0  0  0
 34 35  2  0  0  0  0
 34 36  1  0  0  0  0
 36 37  2  0  0  0  0
 38 36  1  1  0  0  0
 38 39  1  0  0  0  0
 38 43  1  0  0  0  0
 39 40  1  0  0  0  0
 40 41  2  0  0  0  0
 41 42  1  0  0  0  0
 43 44  1  1  0  0  0
 43 45  1  0  0  0  0
 43 46  1  0  0  0  0
 45 46  1  0  0  0  0
 46 47  2  0  0  0  0
 48 49  2  0  0  0  0
 48 50  1  0  0  0  0
 50 51  1  0  0  0  0
 50 53  1  0  0  0  0
 50 54  1  0  0  0  0
 51 52  2  0  0  0  0
M  END
$$$$