
 OpenBabel10232018353D

 92107  0  0  1  0  0  0  0  0999 V2000
    5.3584   -0.3792   -0.4819 O   0  0  0  0  0  0  0  0  0  0  0  0
    4.1782    0.4051   -0.7653 C   0  0  3  0  0  0  0  0  0  0  0  0
    3.2976    0.5735    0.4940 C   0  0  3  0  0  0  0  0  0  0  0  0
    2.7738   -0.7097    0.9175 O   0  0  0  0  0  0  0  0  0  0  0  0
    2.2761   -1.5703   -0.0185 C   0  0  0  0  0  0  0  0  0  0  0  0
    2.4653   -1.3742   -1.3819 C   0  0  0  0  0  0  0  0  0  0  0  0
    3.4140   -0.3257   -1.8808 C   0  0  3  0  0  0  0  0  0  0  0  0
    4.3454   -0.9846   -2.7748 O   0  0  0  0  0  0  0  0  0  0  0  0
    1.7473   -2.1869   -2.2667 C   0  0  0  0  0  0  0  0  0  0  0  0
    0.9310   -3.2784   -1.8669 C   0  0  0  0  0  0  0  0  0  0  0  0
    0.9267   -3.6119   -0.5041 C   0  0  0  0  0  0  0  0  0  0  0  0
    1.5683   -2.7053    0.3946 C   0  0  0  0  0  0  0  0  0  0  0  0
    1.4742   -2.9299    1.7283 F   0  0  0  0  0  0  0  0  0  0  0  0
    0.2965   -4.8396   -0.1726 C   0  0  0  0  0  0  0  0  0  0  0  0
    0.2751   -5.4704    1.4386 Cl  0  0  0  0  0  0  0  0  0  0  0  0
   -0.3117   -5.6662   -1.1519 C   0  0  0  0  0  0  0  0  0  0  0  0
   -0.4108   -5.2950   -2.5186 C   0  0  0  0  0  0  0  0  0  0  0  0
    0.1417   -4.0292   -2.8011 C   0  0  0  0  0  0  0  0  0  0  0  0
   -0.2239   -3.2636   -4.3478 Cl  0  0  0  0  0  0  0  0  0  0  0  0
   -1.0452   -6.2442   -3.5366 C   0  0  0  0  0  0  0  0  0  0  0  0
   -0.5545   -6.3239   -4.8865 C   0  0  0  0  0  0  0  0  0  0  0  0
   -1.0722   -7.2116   -5.9473 C   0  0  0  0  0  0  0  0  0  0  0  0
   -0.8974   -7.3294   -7.5096 C   0  0  0  0  0  0  0  0  0  0  0  0
   -1.5401   -8.3862   -8.1797 C   0  0  0  0  0  0  0  0  0  0  0  0
   -1.7963   -8.3958   -9.5705 N   0  0  0  0  0  0  0  0  0  0  0  0
   -2.1657   -9.3400   -7.3885 C   0  0  0  0  0  0  0  0  0  0  0  0
   -2.2884   -9.2665   -6.0668 N   0  0  0  0  0  0  0  0  0  0  0  0
   -1.8726   -8.2256   -5.3600 N   0  3  0  0  0  0  0  0  0  0  0  0
   -2.2909   -8.2079   -4.0424 N   0  3  0  0  0  0  0  0  0  0  0  0
   -2.0837   -7.1488   -3.2217 C   0  0  0  0  0  0  0  0  0  0  0  0
   -3.0326   -6.9707   -2.0582 C   0  0  0  0  0  0  0  0  0  0  0  0
   -3.0712   -9.6186   -3.4056 Cl  0  0  0  0  0  0  0  0  0  0  0  0
   -0.0571   -6.2875   -8.4856 N   0  3  0  0  0  0  0  0  0  0  0  0
    0.6466   -6.6592   -9.6865 N   0  3  0  0  0  0  0  0  0  0  0  0
    0.9202   -8.2941  -10.1719 Cl  0  0  0  0  0  0  0  0  0  0  0  0
    1.3252   -5.7311  -10.4816 C   0  0  0  0  0  0  0  0  0  0  0  0
    1.4071   -4.3370  -10.2314 C   0  0  0  0  0  0  0  0  0  0  0  0
    0.6949   -3.9316   -9.1090 C   0  0  0  0  0  0  0  0  0  0  0  0
   -0.0488   -4.9121   -8.2425 C   0  0  0  0  0  0  0  0  0  0  0  0
   -0.8691   -4.4134   -7.2196 N   0  0  0  0  0  0  0  0  0  0  0  0
    0.7129   -2.6157   -8.8616 N   0  0  0  0  0  0  0  0  0  0  0  0
    1.3524   -1.6557   -9.5820 N   0  3  0  0  0  0  0  0  0  0  0  0
    2.1032   -1.9613  -10.6975 C   0  0  0  0  0  0  0  0  0  0  0  0
    2.1202   -3.3465  -11.0087 N   0  3  0  0  0  0  0  0  0  0  0  0
    2.8540   -3.7486  -12.1072 N   0  0  0  0  0  0  0  0  0  0  0  0
    3.5384   -2.8644  -12.8853 N   0  3  0  0  0  0  0  0  0  0  0  0
    4.3200   -3.3374  -14.0891 C   0  0  0  0  0  0  0  0  0  0  0  0
    3.5132   -1.5566  -12.5946 C   0  0  0  0  0  0  0  0  0  0  0  0
    2.8128   -1.1076  -11.5279 N   0  3  0  0  0  0  0  0  0  0  0  0
    2.8907    0.5981  -11.3338 Cl  0  0  0  0  0  0  0  0  0  0  0  0
    1.1083   -0.0778   -8.9612 Cl  0  0  0  0  0  0  0  0  0  0  0  0
    2.1808    1.6834    0.3830 C   0  0  3  0  0  0  0  0  0  0  0  0
    2.7852    3.0897    0.1112 C   0  0  0  0  0  0  0  0  0  0  0  0
    1.7930    4.2771    0.2003 C   0  0  3  0  0  0  0  0  0  0  0  0
    0.7578    4.3722   -0.9891 C   0  0  0  0  0  0  0  0  0  0  0  0
   -0.1831    3.1663   -1.1758 C   0  0  0  0  0  0  0  0  0  0  0  0
   -1.6015    3.6906   -1.3206 C   0  0  0  0  0  0  0  0  0  0  0  0
   -1.5696    4.9839   -0.5340 C   0  0  0  0  0  0  0  0  0  0  0  0
   -0.2171    5.5737   -0.9201 C   0  0  0  0  0  0  0  0  0  0  0  0
    1.1129    4.2523    1.5471 C   0  0  0  0  0  0  0  0  0  0  0  0
    0.6861    3.0515    2.0901 C   0  0  0  0  0  0  0  0  0  0  0  0
    1.2479    1.6988    1.6490 C   0  0  3  0  0  0  0  0  0  0  0  0
    0.1308    0.6152    1.5745 C   0  0  3  0  0  0  0  0  0  0  0  0
   -0.2793    0.4166    0.2819 F   0  0  0  0  0  0  0  0  0  0  0  0
   -1.1129    0.8875    2.4241 C   0  0  0  0  0  0  0  0  0  0  0  0
   -0.7632    1.7557    3.6346 C   0  0  3  0  0  0  0  0  0  0  0  0
   -0.3039    3.0972    3.0930 C   0  0  0  0  0  0  0  0  0  0  0  0
   -0.8886    4.3325    3.5069 C   0  0  0  0  0  0  0  0  0  0  0  0
   -0.2244    5.5515    3.1920 C   0  0  0  0  0  0  0  0  0  0  0  0
    0.7767    5.4576    2.1973 C   0  0  0  0  0  0  0  0  0  0  0  0
   -0.5435    6.8992    3.7929 C   0  0  0  0  0  0  0  0  0  0  0  0
   -1.0098    7.0497    5.1159 C   0  0  0  0  0  0  0  0  0  0  0  0
   -1.3869    8.2988    5.6647 C   0  0  0  0  0  0  0  0  0  0  0  0
   -2.3299    8.3339    6.8685 C   0  0  3  0  0  0  0  0  0  0  0  0
   -3.7349    7.9541    6.3405 C   0  0  0  0  0  0  0  0  0  0  0  0
   -4.8357    8.0559    7.3847 C   0  0  0  0  0  0  0  0  0  0  0  0
   -4.8793    9.4418    8.0340 C   0  0  3  0  0  0  0  0  0  0  0  0
   -3.5013    9.7533    8.6664 C   0  0  3  0  0  0  0  0  0  0  0  0
   -2.3509    9.6942    7.6135 C   0  0  3  0  0  0  0  0  0  0  0  0
   -2.3896   10.8629    6.6079 C   0  0  0  0  0  0  0  0  0  0  0  0
   -1.2127   10.8289    5.6230 C   0  0  3  0  0  0  0  0  0  0  0  0
   -1.0666    9.4712    4.9748 C   0  0  0  0  0  0  0  0  0  0  0  0
   -0.5841    9.3599    3.6692 C   0  0  0  0  0  0  0  0  0  0  0  0
   -0.3969    8.1044    3.0796 C   0  0  0  0  0  0  0  0  0  0  0  0
   -0.0733    8.0955    1.7757 F   0  0  0  0  0  0  0  0  0  0  0  0
    0.1037   11.2279    6.3072 C   0  0  0  0  0  0  0  0  0  0  0  0
   -3.5001   11.0780    9.4386 C   0  0  0  0  0  0  0  0  0  0  0  0
   -6.0387    9.4966    9.0332 C   0  0  0  0  0  0  0  0  0  0  0  0
   -2.2609    4.2897    4.1829 C   0  0  3  0  0  0  0  0  0  0  0  0
   -2.9103    2.9008    4.2046 C   0  0  0  0  0  0  0  0  0  0  0  0
   -1.9006    1.8614    4.6451 C   0  0  0  0  0  0  0  0  0  0  0  0
   -3.4259    5.3533    3.3164 Cl  0  0  0  0  0  0  0  0  0  0  0  0
  1  2  1  0  0  0  0
  2  3  1  0  0  0  0
  2  7  1  0  0  0  0
  3  4  1  0  0  0  0
  3 52  1  0  0  0  0
  4  5  1  0  0  0  0
  5  6  2  0  0  0  0
  5 12  1  0  0  0  0
  6  7  1  0  0  0  0
  6  9  1  0  0  0  0
  7  8  1  0  0  0  0
  9 10  2  0  0  0  0
 10 11  1  0  0  0  0
 10 18  1  0  0  0  0
 11 12  2  0  0  0  0
 11 14  1  0  0  0  0
 12 13  1  0  0  0  0
 14 15  1  0  0  0  0
 14 16  2  0  0  0  0
 16 17  1  0  0  0  0
 17 18  2  0  0  0  0
 17 20  1  0  0  0  0
 18 19  1  0  0  0  0
 20 21  2  0  0  0  0
 20 30  1  0  0  0  0
 21 22  1  0  0  0  0
 22 23  2  0  0  0  0
 22 28  1  0  0  0  0
 23 24  1  0  0  0  0
 23 33  1  0  0  0  0
 24 25  1  0  0  0  0
 24 26  2  0  0  0  0
 26 27  1  0  0  0  0
 27 28  2  0  0  0  0
 28 29  1  0  0  0  0
 29 30  2  0  0  0  0
 29 32  1  0  0  0  0
 30 31  1  0  0  0  0
 33 34  2  0  0  0  0
 33 39  1  0  0  0  0
 34 35  1  0  0  0  0
 34 36  1  0  0  0  0
 36 37  2  0  0  0  0
 37 38  1  0  0  0  0
 37 44  1  0  0  0  0
 38 39  2  0  0  0  0
 38 41  1  0  0  0  0
 39 40  1  0  0  0  0
 41 42  2  0  0  0  0
 42 43  1  0  0  0  0
 42 51  1  0  0  0  0
 43 44  2  0  0  0  0
 43 49  1  0  0  0  0
 44 45  1  0  0  0  0
 45 46  2  0  0  0  0
 46 47  1  0  0  0  0
 46 48  1  0  0  0  0
 48 49  2  0  0  0  0
 49 50  1  0  0  0  0
 52 53  1  0  0  0  0
 52 62  1  0  0  0  0
 53 54  1  0  0  0  0
 54 55  1  0  0  0  0
 54 60  1  0  0  0  0
 55 56  1  0  0  0  0
 55 59  1  0  0  0  0
 56 57  1  0  0  0  0
 57 58  1  0  0  0  0
 58 59  1  0  0  0  0
 60 61  2  0  0  0  0
 60 70  1  0  0  0  0
 61 62  1  0  0  0  0
 61 67  1  0  0  0  0
 62 63  1  0  0  0  0
 63 64  1  0  0  0  0
 63 65  1  0  0  0  0
 65 66  1  0  0  0  0
 66 67  1  0  0  0  0
 66 91  1  0  0  0  0
 67 68  2  0  0  0  0
 68 69  1  0  0  0  0
 68 89  1  0  0  0  0
 69 70  2  0  0  0  0
 69 71  1  0  0  0  0
 71 72  2  0  0  0  0
 71 84  1  0  0  0  0
 72 73  1  0  0  0  0
 73 74  1  0  0  0  0
 73 82  2  0  0  0  0
 74 75  1  0  0  0  0
 74 79  1  0  0  0  0
 75 76  1  0  0  0  0
 76 77  1  0  0  0  0
 77 78  1  0  0  0  0
 77 88  1  0  0  0  0
 78 79  1  0  0  0  0
 78 87  1  0  0  0  0
 79 80  1  0  0  0  0
 80 81  1  0  0  0  0
 81 82  1  0  0  0  0
 81 86  1  0  0  0  0
 82 83  1  0  0  0  0
 83 84  2  0  0  0  0
 84 85  1  0  0  0  0
 89 90  1  0  0  0  0
 89 92  1  0  0  0  0
 90 91  1  0  0  0  0
M  CHG  8  28   1  29   1  33   1  34   1  42   1  44   1  46   1  49   1
M  END
$$$$