
 OpenBabel10192015153D

 54 62  0  0  1  0  0  0  0  0999 V2000
    6.3976    4.9303    3.9271 O   0  0  0  0  0  0  0  0  0  0  0  0
    5.8262    5.0077    2.6835 C   0  0  0  0  0  0  0  0  0  0  0  0
    4.8819    4.1547    2.2709 C   0  0  0  0  0  0  0  0  0  0  0  0
    4.4723    3.1092    3.0741 O   0  0  0  0  0  0  0  0  0  0  0  0
    3.0755    2.8259    2.9950 C   0  0  2  0  0  0  0  0  0  0  0  0
    2.7233    1.8133    3.9427 O   0  0  0  0  0  0  0  0  0  0  0  0
    2.9158    2.1970    5.2668 C   0  0  0  0  0  0  0  0  0  0  0  0
    2.8330    3.5494    5.5895 O   0  0  0  0  0  0  0  0  0  0  0  0
    2.9696    3.8779    6.9112 C   0  0  0  0  0  0  0  0  0  0  0  0
    3.2325    2.9401    7.8910 C   0  0  0  0  0  0  0  0  0  0  0  0
    3.3703    1.6035    7.5591 O   0  0  0  0  0  0  0  0  0  0  0  0
    3.1708    1.2767    6.2217 C   0  0  0  0  0  0  0  0  0  0  0  0
    3.2370   -0.1640    5.9157 C   0  0  0  0  0  0  0  0  0  0  0  0
    2.0358   -0.7813    5.9569 N   0  0  0  0  0  0  0  0  0  0  0  0
    1.9827   -2.0665    5.5510 C   0  0  0  0  0  0  0  0  0  0  0  0
    3.0557   -2.8057    5.0520 C   0  0  0  0  0  0  0  0  0  0  0  0
    4.3195   -2.1554    5.0512 C   0  0  0  0  0  0  0  0  0  0  0  0
    4.4268   -0.8169    5.5238 C   0  0  0  0  0  0  0  0  0  0  0  0
    5.7065   -0.2131    5.5855 C   0  0  0  0  0  0  0  0  0  0  0  0
    6.8491   -0.8974    5.1618 C   0  0  0  0  0  0  0  0  0  0  0  0
    6.7426   -2.1671    4.6153 C   0  0  0  0  0  0  0  0  0  0  0  0
    5.4940   -2.7946    4.5828 C   0  0  0  0  0  0  0  0  0  0  0  0
    7.7855   -2.8807    4.0931 O   0  0  0  0  0  0  0  0  0  0  0  0
    9.0098   -2.1695    3.8537 C   0  0  2  0  0  0  0  0  0  0  0  0
    9.3404   -1.1822    4.9461 C   0  0  0  0  0  0  0  0  0  0  0  0
   10.4194   -1.0823    5.5132 O   0  0  0  0  0  0  0  0  0  0  0  0
    8.1797   -0.2957    5.3181 C   0  0  0  0  0  0  0  0  0  0  0  0
    8.3462    0.8438    5.7182 O   0  0  0  0  0  0  0  0  0  0  0  0
    9.0384   -1.5285    2.4940 C   0  0  1  0  0  0  0  0  0  0  0  0
   10.2459   -0.7964    2.1743 O   0  0  0  0  0  0  0  0  0  0  0  0
    8.5175   -2.3390    1.4322 O   0  0  0  0  0  0  0  0  0  0  0  0
    7.8714   -1.2016    1.7027 C   0  0  0  0  0  0  0  0  0  0  0  0
    7.6363   -0.2205    1.0039 O   0  0  0  0  0  0  0  0  0  0  0  0
    2.8313   -4.2059    4.5285 C   0  0  0  0  0  0  0  0  0  0  0  0
    2.9869   -5.2907    5.4540 O   0  0  0  0  0  0  0  0  0  0  0  0
    1.6746   -4.9318    4.9789 O   0  0  0  0  0  0  0  0  0  0  0  0
    3.3709    3.2486    9.2050 N   0  0  0  0  0  0  0  0  0  0  0  0
    3.2096    4.5513    9.6058 C   0  0  0  0  0  0  0  0  0  0  0  0
    2.9254    5.5499    8.6560 C   0  0  0  0  0  0  0  0  0  0  0  0
    2.8271    5.1996    7.3080 C   0  0  0  0  0  0  0  0  0  0  0  0
    2.5649    6.1981    6.3678 N   0  0  0  0  0  0  0  0  0  0  0  0
    2.4510    7.5026    6.7249 C   0  0  0  0  0  0  0  0  0  0  0  0
    2.2624    8.3764    5.8832 O   0  0  0  0  0  0  0  0  0  0  0  0
    2.5712    7.7847    8.0382 N   0  0  0  0  0  0  0  0  0  0  0  0
    2.6757    6.8372    9.0674 O   0  0  0  0  0  0  0  0  0  0  0  0
    3.2777    4.8151   11.0112 N   0  0  0  0  0  0  0  0  0  0  0  0
    3.9555    6.3181   11.5353 Cl  0  0  0  0  0  0  0  0  0  0  0  0
    3.5537    3.7463   11.8678 O   0  0  0  0  0  0  0  0  0  0  0  0
    2.7355    2.3590    1.5849 C   0  0  0  0  0  0  0  0  0  0  0  0
    2.0309    1.4049    1.2888 O   0  0  0  0  0  0  0  0  0  0  0  0
    3.3298    3.2482    0.5139 C   0  0  0  0  0  0  0  0  0  0  0  0
    3.0151    3.1038   -0.6572 O   0  0  0  0  0  0  0  0  0  0  0  0
    4.3085    4.3347    0.9103 C   0  0  0  0  0  0  0  0  0  0  0  0
    4.5528    5.2825    0.1830 O   0  0  0  0  0  0  0  0  0  0  0  0
  1  2  1  0  0  0  0
  2  3  2  0  0  0  0
  3  4  1  0  0  0  0
  3 53  1  0  0  0  0
  4  5  1  0  0  0  0
  5  6  1  1  0  0  0
  5 49  1  0  0  0  0
  6  7  1  0  0  0  0
  7  8  1  0  0  0  0
  7 12  2  0  0  0  0
  8  9  1  0  0  0  0
  9 10  2  0  0  0  0
  9 40  1  0  0  0  0
 10 11  1  0  0  0  0
 10 37  1  0  0  0  0
 11 12  1  0  0  0  0
 12 13  1  0  0  0  0
 13 14  2  0  0  0  0
 13 18  1  0  0  0  0
 14 15  1  0  0  0  0
 15 16  2  0  0  0  0
 16 17  1  0  0  0  0
 16 34  1  0  0  0  0
 17 18  2  0  0  0  0
 17 22  1  0  0  0  0
 18 19  1  0  0  0  0
 19 20  2  0  0  0  0
 20 21  1  0  0  0  0
 20 27  1  0  0  0  0
 21 22  2  0  0  0  0
 21 23  1  0  0  0  0
 24 23  1  1  0  0  0
 24 25  1  0  0  0  0
 24 29  1  0  0  0  0
 25 26  2  0  0  0  0
 25 27  1  0  0  0  0
 27 28  2  0  0  0  0
 29 30  1  6  0  0  0
 29 31  1  0  0  0  0
 29 32  1  0  0  0  0
 31 32  1  0  0  0  0
 32 33  2  0  0  0  0
 34 35  1  0  0  0  0
 34 36  1  0  0  0  0
 35 36  1  0  0  0  0
 37 38  2  0  0  0  0
 38 39  1  0  0  0  0
 38 46  1  0  0  0  0
 39 40  2  0  0  0  0
 39 45  1  0  0  0  0
 40 41  1  0  0  0  0
 41 42  1  0  0  0  0
 42 43  2  0  0  0  0
 42 44  1  0  0  0  0
 44 45  1  0  0  0  0
 46 47  1  0  0  0  0
 46 48  1  0  0  0  0
 49 50  2  0  0  0  0
 49 51  1  0  0  0  0
 51 52  2  0  0  0  0
 51 53  1  0  0  0  0
 53 54  2  0  0  0  0
M  END
$$$$