
 OpenBabel11222001383D

 54 62  0  0  1  0  0  0  0  0999 V2000
    5.2308   -4.6962   -1.3510 O   0  0  0  0  0  0  0  0  0  0  0  0
    5.3969   -3.3558   -1.1215 C   0  0  0  0  0  0  0  0  0  0  0  0
    4.5889   -2.6568   -0.3159 C   0  0  0  0  0  0  0  0  0  0  0  0
    3.4911   -3.2475    0.2789 O   0  0  0  0  0  0  0  0  0  0  0  0
    3.2728   -2.8341    1.6254 C   0  0  2  0  0  0  0  0  0  0  0  0
    2.2082   -3.5744    2.2361 O   0  0  0  0  0  0  0  0  0  0  0  0
    2.3925   -4.9513    2.3146 C   0  0  0  0  0  0  0  0  0  0  0  0
    1.3445   -5.8006    2.2646 C   0  0  0  0  0  0  0  0  0  0  0  0
    1.4691   -7.1800    2.3790 O   0  0  0  0  0  0  0  0  0  0  0  0
    2.7290   -7.7287    2.5580 C   0  0  0  0  0  0  0  0  0  0  0  0
    3.8327   -6.9702    2.6708 C   0  0  0  0  0  0  0  0  0  0  0  0
    3.7833   -5.4842    2.5501 C   0  0  0  0  0  0  0  0  0  0  0  0
    5.1876   -7.6029    2.8602 C   0  0  3  0  0  0  0  0  0  0  0  0
    5.7380   -7.0941    4.0795 O   0  0  0  0  0  0  0  0  0  0  0  0
    6.7754   -7.7216    4.6607 C   0  0  0  0  0  0  0  0  0  0  0  0
    7.3650   -7.1691    5.6564 N   0  0  0  0  0  0  0  0  0  0  0  0
    7.1804   -8.9203    4.2088 O   0  0  0  0  0  0  0  0  0  0  0  0
    6.5155   -9.6189    3.1624 C   0  0  3  0  0  0  0  0  0  0  0  0
    5.1577   -9.0898    2.9234 C   0  0  0  0  0  0  0  0  0  0  0  0
    4.0103   -9.7912    2.7844 C   0  0  0  0  0  0  0  0  0  0  0  0
    2.8229   -9.0967    2.6107 N   0  0  0  0  0  0  0  0  0  0  0  0
    3.9230  -11.2686    2.7857 C   0  0  0  0  0  0  0  0  0  0  0  0
    3.7965  -12.0161    4.0018 O   0  0  0  0  0  0  0  0  0  0  0  0
    2.7008  -11.9654    3.0717 O   0  0  0  0  0  0  0  0  0  0  0  0
    7.2625   -9.4750    1.9670 O   0  0  0  0  0  0  0  0  0  0  0  0
   -0.0467   -5.3334    2.1506 C   0  0  0  0  0  0  0  0  0  0  0  0
   -0.7387   -5.0709    3.3372 C   0  0  0  0  0  0  0  0  0  0  0  0
   -2.0200   -4.5842    3.2454 C   0  0  0  0  0  0  0  0  0  0  0  0
   -2.7000   -4.3425    4.3740 F   0  0  0  0  0  0  0  0  0  0  0  0
   -2.6402   -4.3341    2.0808 N   0  0  0  0  0  0  0  0  0  0  0  0
   -1.9581   -4.5794    0.9398 C   0  0  0  0  0  0  0  0  0  0  0  0
   -0.6512   -5.1177    0.9050 C   0  0  0  0  0  0  0  0  0  0  0  0
   -0.0184   -5.4056   -0.2581 N   0  0  0  0  0  0  0  0  0  0  0  0
   -0.6406   -5.1019   -1.4210 C   0  0  0  0  0  0  0  0  0  0  0  0
    0.0515   -5.4615   -2.6755 C   0  0  0  0  0  0  0  0  0  0  0  0
    1.1014   -6.0820   -2.7293 O   0  0  0  0  0  0  0  0  0  0  0  0
   -0.6502   -5.0381   -3.9463 C   0  0  0  0  0  0  0  0  0  0  0  0
   -0.4265   -5.5900   -5.0147 O   0  0  0  0  0  0  0  0  0  0  0  0
   -1.6209   -3.8981   -3.7696 C   0  0  1  0  0  0  0  0  0  0  0  0
   -2.4911   -4.0848   -2.6472 O   0  0  0  0  0  0  0  0  0  0  0  0
   -1.8813   -4.4958   -1.4904 C   0  0  0  0  0  0  0  0  0  0  0  0
   -2.5737   -4.2963   -0.2905 C   0  0  0  0  0  0  0  0  0  0  0  0
   -3.8136   -3.5951   -0.3089 N   0  0  0  0  0  0  0  0  0  0  0  0
   -0.9172   -2.5784   -3.7031 C   0  0  1  0  0  0  0  0  0  0  0  0
    0.0874   -2.4267   -2.6700 O   0  0  0  0  0  0  0  0  0  0  0  0
   -0.5854   -2.0267   -4.9739 O   0  0  0  0  0  0  0  0  0  0  0  0
   -1.4628   -1.3321   -4.2293 C   0  0  0  0  0  0  0  0  0  0  0  0
   -1.3711   -0.1988   -3.7907 O   0  0  0  0  0  0  0  0  0  0  0  0
    2.9445   -1.3516    1.6553 C   0  0  0  0  0  0  0  0  0  0  0  0
    2.0415   -0.8204    2.2845 O   0  0  0  0  0  0  0  0  0  0  0  0
    3.9262   -0.5270    0.8561 C   0  0  0  0  0  0  0  0  0  0  0  0
    3.9748    0.6840    1.0058 O   0  0  0  0  0  0  0  0  0  0  0  0
    4.8821   -1.2148   -0.0976 C   0  0  0  0  0  0  0  0  0  0  0  0
    5.8261   -0.6268   -0.5970 O   0  0  0  0  0  0  0  0  0  0  0  0
  1  2  1  0  0  0  0
  2  3  2  0  0  0  0
  3  4  1  0  0  0  0
  3 53  1  0  0  0  0
  4  5  1  0  0  0  0
  5  6  1  6  0  0  0
  5 49  1  0  0  0  0
  6  7  1  0  0  0  0
  7  8  2  0  0  0  0
  7 12  1  0  0  0  0
  8  9  1  0  0  0  0
  8 26  1  0  0  0  0
  9 10  1  0  0  0  0
 10 11  2  0  0  0  0
 10 21  1  0  0  0  0
 11 12  1  0  0  0  0
 11 13  1  0  0  0  0
 13 14  1  0  0  0  0
 13 19  1  0  0  0  0
 14 15  1  0  0  0  0
 15 16  2  0  0  0  0
 15 17  1  0  0  0  0
 17 18  1  0  0  0  0
 18 19  1  0  0  0  0
 18 25  1  0  0  0  0
 19 20  2  0  0  0  0
 20 21  1  0  0  0  0
 20 22  1  0  0  0  0
 22 23  1  0  0  0  0
 22 24  1  0  0  0  0
 23 24  1  0  0  0  0
 26 27  2  0  0  0  0
 26 32  1  0  0  0  0
 27 28  1  0  0  0  0
 28 29  1  0  0  0  0
 28 30  2  0  0  0  0
 30 31  1  0  0  0  0
 31 32  2  0  0  0  0
 31 42  1  0  0  0  0
 32 33  1  0  0  0  0
 33 34  2  0  0  0  0
 34 35  1  0  0  0  0
 34 41  1  0  0  0  0
 35 36  2  0  0  0  0
 35 37  1  0  0  0  0
 37 38  2  0  0  0  0
 39 37  1  1  0  0  0
 39 40  1  0  0  0  0
 39 44  1  0  0  0  0
 40 41  1  0  0  0  0
 41 42  2  0  0  0  0
 42 43  1  0  0  0  0
 44 45  1  1  0  0  0
 44 46  1  0  0  0  0
 44 47  1  0  0  0  0
 46 47  1  0  0  0  0
 47 48  2  0  0  0  0
 49 50  2  0  0  0  0
 49 51  1  0  0  0  0
 51 52  2  0  0  0  0
 51 53  1  0  0  0  0
 53 54  2  0  0  0  0
M  END
$$$$