
 OpenBabel11232002283D

 54 62  0  0  1  0  0  0  0  0999 V2000
   -1.1152   -5.7385   -1.3087 O   0  0  0  0  0  0  0  0  0  0  0  0
   -0.5612   -4.4977   -1.5290 C   0  0  0  0  0  0  0  0  0  0  0  0
    0.5295   -4.1007   -0.8677 C   0  0  0  0  0  0  0  0  0  0  0  0
    1.0574   -4.9350    0.0965 O   0  0  0  0  0  0  0  0  0  0  0  0
    2.4367   -4.7741    0.3672 C   0  0  2  0  0  0  0  0  0  0  0  0
    2.7887   -5.8099    1.3360 O   0  0  0  0  0  0  0  0  0  0  0  0
    2.8617   -7.1089    0.8166 C   0  0  0  0  0  0  0  0  0  0  0  0
    2.6361   -8.2463    1.5352 C   0  0  0  0  0  0  0  0  0  0  0  0
    2.8297   -9.5224    0.9338 O   0  0  0  0  0  0  0  0  0  0  0  0
    3.4039   -9.6337   -0.3507 C   0  0  0  0  0  0  0  0  0  0  0  0
    3.6545   -8.5419   -1.0841 C   0  0  0  0  0  0  0  0  0  0  0  0
    3.3303   -7.1860   -0.6107 C   0  0  0  0  0  0  0  0  0  0  0  0
    4.2418   -8.5805   -2.4636 C   0  0  3  0  0  0  0  0  0  0  0  0
    5.4718   -7.8776   -2.4369 O   0  0  0  0  0  0  0  0  0  0  0  0
    6.0967   -7.7352   -3.6487 C   0  0  0  0  0  0  0  0  0  0  0  0
    6.9207   -6.8890   -3.8451 O   0  0  0  0  0  0  0  0  0  0  0  0
    5.6573   -8.6078   -4.5931 O   0  0  0  0  0  0  0  0  0  0  0  0
    5.2056   -9.9151   -4.2272 C   0  0  3  0  0  0  0  0  0  0  0  0
    4.5764   -9.9481   -2.8743 C   0  0  0  0  0  0  0  0  0  0  0  0
    4.3117  -11.0300   -2.1026 C   0  0  0  0  0  0  0  0  0  0  0  0
    3.7058  -10.8833   -0.8551 O   0  3  0  0  0  0  0  0  0  0  0  0
    4.5923  -12.4174   -2.5285 C   0  0  0  0  0  0  0  0  0  0  0  0
    3.5347  -13.3890   -2.5216 O   0  0  0  0  0  0  0  0  0  0  0  0
    4.1159  -12.9543   -3.7664 O   0  0  0  0  0  0  0  0  0  0  0  0
    4.1700  -10.2830   -5.1121 O   0  0  0  0  0  0  0  0  0  0  0  0
    2.1501   -8.2977    2.9785 C   0  0  0  0  0  0  0  0  0  0  0  0
    1.2822   -7.2969    3.4289 C   0  0  0  0  0  0  0  0  0  0  0  0
    0.8101   -7.2915    4.6830 N   0  3  0  0  0  0  0  0  0  0  0  0
    0.0365   -6.2635    5.0880 F   0  0  0  0  0  0  0  0  0  0  0  0
    1.0814   -8.2501    5.5537 N   0  0  0  0  0  0  0  0  0  0  0  0
    1.9069   -9.2443    5.2248 C   0  0  0  0  0  0  0  0  0  0  0  0
    2.4952   -9.3094    3.9394 C   0  0  0  0  0  0  0  0  0  0  0  0
    3.4345  -10.3525    3.7397 C   0  0  0  0  0  0  0  0  0  0  0  0
    3.7540  -11.3071    4.7327 C   0  0  0  0  0  0  0  0  0  0  0  0
    4.8393  -12.3302    4.5339 C   0  0  3  0  0  0  0  0  0  0  0  0
    4.9291  -12.6186    3.1326 O   0  0  0  0  0  0  0  0  0  0  0  0
    4.5353  -13.5885    5.3386 C   0  0  3  0  0  0  0  0  0  0  0  0
    3.4018  -14.2161    4.7343 O   0  0  0  0  0  0  0  0  0  0  0  0
    4.2677  -13.0992    6.7617 C   0  0  0  0  0  0  0  0  0  0  0  0
    3.5176  -12.0526    6.9940 O   0  3  0  0  0  0  0  0  0  0  0  0
    3.1470  -11.2446    5.9796 C   0  0  0  0  0  0  0  0  0  0  0  0
    2.2323  -10.2065    6.2010 C   0  0  0  0  0  0  0  0  0  0  0  0
    1.6750  -10.0958    7.4200 F   0  0  0  0  0  0  0  0  0  0  0  0
    4.8744  -13.9248    7.8268 C   0  0  1  0  0  0  0  0  0  0  0  0
    6.2153  -13.5913    8.2232 O   0  0  0  0  0  0  0  0  0  0  0  0
    4.0175  -14.4620    8.8117 O   0  0  0  0  0  0  0  0  0  0  0  0
    4.4685  -15.3372    7.8884 C   0  0  0  0  0  0  0  0  0  0  0  0
    3.8948  -15.9086    6.9820 O   0  0  0  0  0  0  0  0  0  0  0  0
    2.7806   -3.3584    0.8036 C   0  0  0  0  0  0  0  0  0  0  0  0
    3.6133   -3.0872    1.6538 O   0  0  0  0  0  0  0  0  0  0  0  0
    2.0469   -2.3004   -0.0039 C   0  0  0  0  0  0  0  0  0  0  0  0
    2.1743   -1.1202    0.2689 O   0  0  0  0  0  0  0  0  0  0  0  0
    1.0939   -2.7427   -1.1028 C   0  0  0  0  0  0  0  0  0  0  0  0
    0.8510   -2.0617   -2.0808 O   0  0  0  0  0  0  0  0  0  0  0  0
  1  2  1  0  0  0  0
  2  3  2  0  0  0  0
  3  4  1  0  0  0  0
  3 53  1  0  0  0  0
  4  5  1  0  0  0  0
  5  6  1  1  0  0  0
  5 49  1  0  0  0  0
  6  7  1  0  0  0  0
  7  8  2  0  0  0  0
  7 12  1  0  0  0  0
  8  9  1  0  0  0  0
  8 26  1  0  0  0  0
  9 10  1  0  0  0  0
 10 11  2  0  0  0  0
 10 21  1  0  0  0  0
 11 12  1  0  0  0  0
 11 13  1  0  0  0  0
 13 14  1  0  0  0  0
 13 19  1  0  0  0  0
 14 15  1  0  0  0  0
 15 16  2  0  0  0  0
 15 17  1  0  0  0  0
 17 18  1  0  0  0  0
 18 19  1  0  0  0  0
 18 25  1  0  0  0  0
 19 20  2  0  0  0  0
 20 21  1  0  0  0  0
 20 22  1  0  0  0  0
 22 23  1  0  0  0  0
 22 24  1  0  0  0  0
 23 24  1  0  0  0  0
 26 27  2  0  0  0  0
 26 32  1  0  0  0  0
 27 28  1  0  0  0  0
 28 29  1  0  0  0  0
 28 30  2  0  0  0  0
 30 31  1  0  0  0  0
 31 32  2  0  0  0  0
 31 42  1  0  0  0  0
 32 33  1  0  0  0  0
 33 34  2  0  0  0  0
 34 35  1  0  0  0  0
 34 41  1  0  0  0  0
 35 36  1  0  0  0  0
 35 37  1  0  0  0  0
 37 38  1  0  0  0  0
 37 39  1  0  0  0  0
 39 40  2  0  0  0  0
 40 41  1  0  0  0  0
 41 42  2  0  0  0  0
 42 43  1  0  0  0  0
 44 39  1  6  0  0  0
 44 45  1  0  0  0  0
 44 46  1  0  0  0  0
 44 47  1  0  0  0  0
 46 47  1  0  0  0  0
 47 48  2  0  0  0  0
 49 50  2  0  0  0  0
 49 51  1  0  0  0  0
 51 52  2  0  0  0  0
 51 53  1  0  0  0  0
 53 54  2  0  0  0  0
M  CHG  3  21   1  28   1  40   1
M  END
$$$$