
 OpenBabel10252011453D

 93108  0  0  1  0  0  0  0  0999 V2000
    5.8401    3.7055    2.3832 F   0  0  0  0  0  0  0  0  0  0  0  0
    5.9910    4.9299    1.8126 C   0  0  3  0  0  0  0  0  0  0  0  0
    6.9751    5.7499    2.6606 C   0  0  0  0  0  0  0  0  0  0  0  0
    6.5132    7.2139    2.7944 C   0  0  3  0  0  0  0  0  0  0  0  0
    7.5986    8.0841    3.4229 C   0  0  0  0  0  0  0  0  0  0  0  0
    7.3632    8.3104    4.9016 C   0  0  0  0  0  0  0  0  0  0  0  0
    5.9500    8.8538    5.1689 C   0  0  3  0  0  0  0  0  0  0  0  0
    4.8843    7.8606    4.7273 C   0  0  0  0  0  0  0  0  0  0  0  0
    5.1601    7.1649    3.5096 C   0  0  0  0  0  0  0  0  0  0  0  0
    4.2302    6.2614    2.9420 C   0  0  0  0  0  0  0  0  0  0  0  0
    4.6075    5.6020    1.6251 C   0  0  3  0  0  0  0  0  0  0  0  0
    3.5501    4.6821    0.9405 C   0  0  3  0  0  0  0  0  0  0  0  0
    2.1447    4.8545    1.5667 C   0  0  0  0  0  0  0  0  0  0  0  0
    2.1643    4.8758    3.0977 C   0  0  0  0  0  0  0  0  0  0  0  0
    3.0552    5.9733    3.6126 C   0  0  0  0  0  0  0  0  0  0  0  0
    2.7927    6.6299    4.8305 C   0  0  0  0  0  0  0  0  0  0  0  0
    3.6555    7.6014    5.4217 C   0  0  0  0  0  0  0  0  0  0  0  0
    3.2404    8.1935    6.7526 C   0  0  0  0  0  0  0  0  0  0  0  0
    4.1704    8.4571    7.7698 C   0  0  0  0  0  0  0  0  0  0  0  0
    3.8301    8.9177    9.0646 C   0  0  0  0  0  0  0  0  0  0  0  0
    4.9301    8.9131   10.1189 C   0  0  3  0  0  0  0  0  0  0  0  0
    5.2950    7.4324   10.3545 C   0  0  0  0  0  0  0  0  0  0  0  0
    6.3372    7.2377   11.4347 C   0  0  0  0  0  0  0  0  0  0  0  0
    5.8961    7.8725   12.7540 C   0  0  3  0  0  0  0  0  0  0  0  0
    5.6158    9.3809   12.5450 C   0  0  3  0  0  0  0  0  0  0  0  0
    4.5593    9.6453   11.4289 C   0  0  3  0  0  0  0  0  0  0  0  0
    3.1127    9.3053   11.8362 C   0  0  0  0  0  0  0  0  0  0  0  0
    2.0929    9.6884   10.7448 C   0  0  3  0  0  0  0  0  0  0  0  0
    2.4928    9.1548    9.3853 C   0  0  0  0  0  0  0  0  0  0  0  0
    1.5274    8.8636    8.4156 C   0  0  0  0  0  0  0  0  0  0  0  0
    1.8964    8.3893    7.1424 C   0  0  0  0  0  0  0  0  0  0  0  0
    0.8885    8.0861    6.3054 F   0  0  0  0  0  0  0  0  0  0  0  0
    1.8961   11.2084   10.6614 C   0  0  0  0  0  0  0  0  0  0  0  0
    5.2424   10.0850   13.8540 C   0  0  0  0  0  0  0  0  0  0  0  0
    6.9664    7.5986   13.8138 C   0  0  0  0  0  0  0  0  0  0  0  0
    3.4712    4.9251   -0.6278 C   0  0  3  0  0  0  0  0  0  0  0  0
    3.0761    6.3159   -0.8739 O   0  0  0  0  0  0  0  0  0  0  0  0
    3.4581    6.9345   -2.0483 C   0  0  0  0  0  0  0  0  0  0  0  0
    4.2938    6.3457   -2.9570 C   0  0  0  0  0  0  0  0  0  0  0  0
    4.6318    4.8818   -2.8467 C   0  0  3  0  0  0  0  0  0  0  0  0
    4.7751    4.5347   -1.3631 C   0  0  3  0  0  0  0  0  0  0  0  0
    5.0584    3.1377   -1.2217 O   0  0  0  0  0  0  0  0  0  0  0  0
    6.3814    2.7703   -1.2394 C   0  0  0  0  0  0  0  0  0  0  0  0
    6.6672    1.5389   -0.6505 C   0  0  0  0  0  0  0  0  0  0  0  0
    7.9870    1.0871   -0.5645 C   0  0  0  0  0  0  0  0  0  0  0  0
    9.0260    1.8465   -1.0981 C   0  0  0  0  0  0  0  0  0  0  0  0
    8.7466    3.0563   -1.7212 C   0  0  0  0  0  0  0  0  0  0  0  0
    7.4316    3.5191   -1.7841 C   0  0  0  0  0  0  0  0  0  0  0  0
    3.6058    4.1580   -3.5109 O   0  0  0  0  0  0  0  0  0  0  0  0
    4.7906    7.0990   -4.0514 C   0  0  0  0  0  0  0  0  0  0  0  0
    4.3351    8.4048   -4.3337 C   0  0  0  0  0  0  0  0  0  0  0  0
    3.3467    8.9489   -3.5059 C   0  0  0  0  0  0  0  0  0  0  0  0
    2.9757    8.2318   -2.3059 C   0  0  0  0  0  0  0  0  0  0  0  0
    2.1150    8.7917   -1.4696 F   0  0  0  0  0  0  0  0  0  0  0  0
    2.7861   10.1581   -3.9438 C   0  0  0  0  0  0  0  0  0  0  0  0
    1.5724   11.0272   -3.0779 Cl  0  0  0  0  0  0  0  0  0  0  0  0
    3.1346   10.7167   -5.1997 C   0  0  0  0  0  0  0  0  0  0  0  0
    4.1369   10.2108   -6.0412 C   0  0  0  0  0  0  0  0  0  0  0  0
    4.8096    9.1181   -5.4993 C   0  0  0  0  0  0  0  0  0  0  0  0
    6.3687    8.7181   -6.1909 Cl  0  0  0  0  0  0  0  0  0  0  0  0
    4.3595   10.7859   -7.4217 C   0  0  0  0  0  0  0  0  0  0  0  0
    4.0977   12.1740   -7.6697 C   0  0  0  0  0  0  0  0  0  0  0  0
    4.0296   12.7530   -9.0105 C   0  0  0  0  0  0  0  0  0  0  0  0
    3.4769   14.0808   -9.5162 C   0  0  0  0  0  0  0  0  0  0  0  0
    3.5570   14.3890  -10.8881 C   0  0  0  0  0  0  0  0  0  0  0  0
    2.8129   15.4526  -11.4696 N   0  0  0  0  0  0  0  0  0  0  0  0
    4.2448   13.4901  -11.6839 C   0  0  0  0  0  0  0  0  0  0  0  0
    4.7415   12.3292  -11.2462 N   0  0  0  0  0  0  0  0  0  0  0  0
    4.5885   11.9095   -9.9871 N   0  3  0  0  0  0  0  0  0  0  0  0
    4.9421   10.6099   -9.7310 N   0  3  0  0  0  0  0  0  0  0  0  0
    4.6869   10.0129   -8.5407 C   0  0  0  0  0  0  0  0  0  0  0  0
    4.5551    8.6473   -8.5504 O   0  0  0  0  0  0  0  0  0  0  0  0
    5.6237    9.6467  -10.9879 Cl  0  0  0  0  0  0  0  0  0  0  0  0
    2.6540   15.1611   -8.6889 N   0  3  0  0  0  0  0  0  0  0  0  0
    2.7283   16.5467   -8.9739 N   0  3  0  0  0  0  0  0  0  0  0  0
    4.1926   17.2397   -9.5960 Cl  0  0  0  0  0  0  0  0  0  0  0  0
    1.7689   17.4655   -8.5631 C   0  0  0  0  0  0  0  0  0  0  0  0
    0.7221   17.1861   -7.6410 C   0  0  0  0  0  0  0  0  0  0  0  0
    0.7669   15.8447   -7.1914 C   0  0  0  0  0  0  0  0  0  0  0  0
    1.6778   14.8079   -7.7647 C   0  0  0  0  0  0  0  0  0  0  0  0
    1.4865   13.4564   -7.4602 N   0  0  0  0  0  0  0  0  0  0  0  0
   -0.4559   15.3628   -5.8633 P   0  0  0  0  0  0  0  0  0  0  0  0
   -0.9296   16.8522   -5.2799 N   0  3  0  0  0  0  0  0  0  0  0  0
   -1.1314   17.9453   -6.0645 C   0  0  0  0  0  0  0  0  0  0  0  0
   -0.2835   18.1238   -7.1901 N   0  3  0  0  0  0  0  0  0  0  0  0
   -0.4410   19.2942   -7.9101 N   0  0  0  0  0  0  0  0  0  0  0  0
   -1.3918   20.2185   -7.6033 N   0  3  0  0  0  0  0  0  0  0  0  0
   -1.5779   21.4377   -8.4699 C   0  0  0  0  0  0  0  0  0  0  0  0
   -2.2116   20.0203   -6.5628 C   0  0  0  0  0  0  0  0  0  0  0  0
   -2.0869   18.9094   -5.8122 N   0  3  0  0  0  0  0  0  0  0  0  0
   -3.3440   18.6831   -4.6572 Cl  0  0  0  0  0  0  0  0  0  0  0  0
   -1.0021   16.9161   -3.5624 Cl  0  0  0  0  0  0  0  0  0  0  0  0
    5.6567   10.4244    4.3341 Cl  0  0  0  0  0  0  0  0  0  0  0  0
  1  2  1  0  0  0  0
  2  3  1  0  0  0  0
  2 11  1  0  0  0  0
  3  4  1  0  0  0  0
  4  5  1  0  0  0  0
  4  9  1  0  0  0  0
  5  6  1  0  0  0  0
  6  7  1  0  0  0  0
  7  8  1  0  0  0  0
  7 93  1  0  0  0  0
  8  9  2  0  0  0  0
  8 17  1  0  0  0  0
  9 10  1  0  0  0  0
 10 11  1  0  0  0  0
 10 15  2  0  0  0  0
 11 12  1  0  0  0  0
 12 13  1  0  0  0  0
 12 36  1  0  0  0  0
 13 14  1  0  0  0  0
 14 15  1  0  0  0  0
 15 16  1  0  0  0  0
 16 17  2  0  0  0  0
 17 18  1  0  0  0  0
 18 19  2  0  0  0  0
 18 31  1  0  0  0  0
 19 20  1  0  0  0  0
 20 21  1  0  0  0  0
 20 29  2  0  0  0  0
 21 22  1  0  0  0  0
 21 26  1  0  0  0  0
 22 23  1  0  0  0  0
 23 24  1  0  0  0  0
 24 25  1  0  0  0  0
 24 35  1  0  0  0  0
 25 26  1  0  0  0  0
 25 34  1  0  0  0  0
 26 27  1  0  0  0  0
 27 28  1  0  0  0  0
 28 29  1  0  0  0  0
 28 33  1  0  0  0  0
 29 30  1  0  0  0  0
 30 31  2  0  0  0  0
 31 32  1  0  0  0  0
 36 37  1  0  0  0  0
 36 41  1  0  0  0  0
 37 38  1  0  0  0  0
 38 39  2  0  0  0  0
 38 53  1  0  0  0  0
 39 40  1  0  0  0  0
 39 50  1  0  0  0  0
 40 41  1  0  0  0  0
 40 49  1  0  0  0  0
 41 42  1  0  0  0  0
 42 43  1  0  0  0  0
 43 44  2  0  0  0  0
 43 48  1  0  0  0  0
 44 45  1  0  0  0  0
 45 46  2  0  0  0  0
 46 47  1  0  0  0  0
 47 48  2  0  0  0  0
 50 51  2  0  0  0  0
 51 52  1  0  0  0  0
 51 59  1  0  0  0  0
 52 53  2  0  0  0  0
 52 55  1  0  0  0  0
 53 54  1  0  0  0  0
 55 56  1  0  0  0  0
 55 57  2  0  0  0  0
 57 58  1  0  0  0  0
 58 59  2  0  0  0  0
 58 61  1  0  0  0  0
 59 60  1  0  0  0  0
 61 62  2  0  0  0  0
 61 71  1  0  0  0  0
 62 63  1  0  0  0  0
 63 64  2  0  0  0  0
 63 69  1  0  0  0  0
 64 65  1  0  0  0  0
 64 74  1  0  0  0  0
 65 66  1  0  0  0  0
 65 67  2  0  0  0  0
 67 68  1  0  0  0  0
 68 69  2  0  0  0  0
 69 70  1  0  0  0  0
 70 71  2  0  0  0  0
 70 73  1  0  0  0  0
 71 72  1  0  0  0  0
 74 75  2  0  0  0  0
 74 80  1  0  0  0  0
 75 76  1  0  0  0  0
 75 77  1  0  0  0  0
 77 78  2  0  0  0  0
 78 79  1  0  0  0  0
 78 85  1  0  0  0  0
 79 80  2  0  0  0  0
 79 82  1  0  0  0  0
 80 81  1  0  0  0  0
 82 83  2  0  0  0  0
 83 84  1  0  0  0  0
 83 92  1  0  0  0  0
 84 85  2  0  0  0  0
 84 90  1  0  0  0  0
 85 86  1  0  0  0  0
 86 87  2  0  0  0  0
 87 88  1  0  0  0  0
 87 89  1  0  0  0  0
 89 90  2  0  0  0  0
 90 91  1  0  0  0  0
M  CHG  8  69   1  70   1  74   1  75   1  83   1  85   1  87   1  90   1
M  END
$$$$