
 OpenBabel10262010433D

 52 60  0  0  1  0  0  0  0  0999 V2000
    1.3452    0.1571   -0.2858 O   0  0  0  0  0  0  0  0  0  0  0  0
    2.5363    0.0763   -0.0152 C   0  0  0  0  0  0  0  0  0  0  0  0
    3.0667   -1.1615    0.2800 N   0  0  0  0  0  0  0  0  0  0  0  0
    4.3416   -1.2690    0.4441 C   0  0  0  0  0  0  0  0  0  0  0  0
    5.2615   -0.1291    0.3510 C   0  0  0  0  0  0  0  0  0  0  0  0
    4.5602    1.1692    0.1489 C   0  0  0  0  0  0  0  0  0  0  0  0
    3.2786    1.2395   -0.0077 N   0  0  0  0  0  0  0  0  0  0  0  0
    5.3733    2.4232    0.1520 C   0  0  0  0  0  0  0  0  0  0  0  0
    4.6826    3.7492    0.1287 C   0  0  0  0  0  0  0  0  0  0  0  0
    5.6430    4.9238    0.1943 C   0  0  0  0  0  0  0  0  0  0  0  0
    6.9794    4.6976    0.1933 C   0  0  0  0  0  0  0  0  0  0  0  0
    7.5322    3.4151    0.2076 O   0  0  0  0  0  0  0  0  0  0  0  0
    6.7064    2.3058    0.2205 C   0  0  0  0  0  0  0  0  0  0  0  0
    7.3072    1.0812    0.3267 N   0  0  0  0  0  0  0  0  0  0  0  0
    6.6034   -0.1086    0.4500 C   0  0  0  0  0  0  0  0  0  0  0  0
    7.4009   -1.3453    0.7065 C   0  0  0  0  0  0  0  0  0  0  0  0
    7.0347   -2.5002    0.6232 O   0  0  0  0  0  0  0  0  0  0  0  0
    8.6622   -1.0300    1.0715 O   0  0  0  0  0  0  0  0  0  0  0  0
    8.0343    5.7345    0.2536 C   0  0  0  0  0  0  0  0  0  0  0  0
    8.4021    6.0610    1.5124 N   0  0  0  0  0  0  0  0  0  0  0  0
    9.4641    6.8649    1.6262 C   0  0  0  0  0  0  0  0  0  0  0  0
   10.2223    7.3182    0.6228 N   0  0  0  0  0  0  0  0  0  0  0  0
    9.8217    7.0294   -0.6131 C   0  0  0  0  0  0  0  0  0  0  0  0
    8.6865    6.2459   -0.8858 C   0  0  0  0  0  0  0  0  0  0  0  0
    8.2738    6.0898   -2.2312 C   0  0  0  0  0  0  0  0  0  0  0  0
    8.9318    6.7934   -3.2477 C   0  0  0  0  0  0  0  0  0  0  0  0
   10.0868    7.5103   -2.9754 C   0  0  0  0  0  0  0  0  0  0  0  0
   10.5395    7.5871   -1.6619 C   0  0  0  0  0  0  0  0  0  0  0  0
   10.7858    8.2461   -3.8857 O   0  0  0  0  0  0  0  0  0  0  0  0
   10.5176    7.9921   -5.2650 C   0  0  2  0  0  0  0  0  0  0  0  0
    9.0720    7.7246   -5.6042 C   0  0  0  0  0  0  0  0  0  0  0  0
    8.5633    8.0120   -6.6783 O   0  0  0  0  0  0  0  0  0  0  0  0
    8.3259    6.9036   -4.5778 C   0  0  0  0  0  0  0  0  0  0  0  0
    7.2584    6.3780   -4.8472 O   0  0  0  0  0  0  0  0  0  0  0  0
   11.4340    6.9277   -5.7854 C   0  0  1  0  0  0  0  0  0  0  0  0
   12.8520    7.1980   -5.6706 O   0  0  0  0  0  0  0  0  0  0  0  0
   11.0347    5.5855   -5.4991 O   0  0  0  0  0  0  0  0  0  0  0  0
   11.0615    5.9433   -6.8029 C   0  0  0  0  0  0  0  0  0  0  0  0
   11.7039    5.4839   -7.7158 O   0  0  0  0  0  0  0  0  0  0  0  0
    5.1265    6.2168    0.2089 O   0  0  0  0  0  0  0  0  0  0  0  0
    3.8381    6.4531    0.8265 C   0  0  1  0  0  0  0  0  0  0  0  0
    3.8437    6.0728    2.2025 O   0  0  0  0  0  0  0  0  0  0  0  0
    2.7513    6.5163    2.9359 C   0  0  0  0  0  0  0  0  0  0  0  0
    2.1023    5.6645    3.7438 C   0  0  0  0  0  0  0  0  0  0  0  0
    0.7327    5.8026    3.9605 O   0  0  0  0  0  0  0  0  0  0  0  0
    1.6545    6.0374    5.0041 O   0  0  0  0  0  0  0  0  0  0  0  0
    2.4298    7.9698    2.9252 C   0  0  0  0  0  0  0  0  0  0  0  0
    1.7180    8.5491    3.7258 O   0  0  0  0  0  0  0  0  0  0  0  0
    3.0788    8.7004    1.7756 C   0  0  0  0  0  0  0  0  0  0  0  0
    3.2483    9.9087    1.8258 O   0  0  0  0  0  0  0  0  0  0  0  0
    3.5043    7.9209    0.5569 C   0  0  0  0  0  0  0  0  0  0  0  0
    3.4962    8.4487   -0.5476 O   0  0  0  0  0  0  0  0  0  0  0  0
  1  2  2  0  0  0  0
  2  3  1  0  0  0  0
  2  7  1  0  0  0  0
  3  4  2  0  0  0  0
  4  5  1  0  0  0  0
  5  6  1  0  0  0  0
  5 15  2  0  0  0  0
  6  7  2  0  0  0  0
  6  8  1  0  0  0  0
  8  9  1  0  0  0  0
  8 13  2  0  0  0  0
  9 10  1  0  0  0  0
 10 11  2  0  0  0  0
 10 40  1  0  0  0  0
 11 12  1  0  0  0  0
 11 19  1  0  0  0  0
 12 13  1  0  0  0  0
 13 14  1  0  0  0  0
 14 15  1  0  0  0  0
 15 16  1  0  0  0  0
 16 17  2  0  0  0  0
 16 18  1  0  0  0  0
 19 20  2  0  0  0  0
 19 24  1  0  0  0  0
 20 21  1  0  0  0  0
 21 22  2  0  0  0  0
 22 23  1  0  0  0  0
 23 24  2  0  0  0  0
 23 28  1  0  0  0  0
 24 25  1  0  0  0  0
 25 26  2  0  0  0  0
 26 27  1  0  0  0  0
 26 33  1  0  0  0  0
 27 28  2  0  0  0  0
 27 29  1  0  0  0  0
 30 29  1  1  0  0  0
 30 31  1  0  0  0  0
 30 35  1  0  0  0  0
 31 32  2  0  0  0  0
 31 33  1  0  0  0  0
 33 34  2  0  0  0  0
 35 36  1  1  0  0  0
 35 37  1  0  0  0  0
 35 38  1  0  0  0  0
 37 38  1  0  0  0  0
 38 39  2  0  0  0  0
 41 40  1  1  0  0  0
 41 42  1  0  0  0  0
 41 51  1  0  0  0  0
 42 43  1  0  0  0  0
 43 44  2  0  0  0  0
 43 47  1  0  0  0  0
 44 45  1  0  0  0  0
 44 46  1  0  0  0  0
 45 46  1  0  0  0  0
 47 48  2  0  0  0  0
 47 49  1  0  0  0  0
 49 50  2  0  0  0  0
 49 51  1  0  0  0  0
 51 52  2  0  0  0  0
M  END
$$$$