
 OpenBabel10242017403D

 51 58  0  0  1  0  0  0  0  0999 V2000
    7.4483   -7.0888    1.9967 O   0  0  0  0  0  0  0  0  0  0  0  0
    7.5046   -6.0207    2.8544 C   0  0  0  0  0  0  0  0  0  0  0  0
    6.6010   -5.0343    2.8460 C   0  0  0  0  0  0  0  0  0  0  0  0
    5.5579   -5.0209    1.9393 O   0  0  0  0  0  0  0  0  0  0  0  0
    4.3278   -4.5716    2.5093 C   0  0  2  0  0  0  0  0  0  0  0  0
    3.2604   -4.7008    1.5674 O   0  0  0  0  0  0  0  0  0  0  0  0
    2.9252   -5.9783    1.1357 C   0  0  0  0  0  0  0  0  0  0  0  0
    2.4285   -6.2070   -0.1074 C   0  0  0  0  0  0  0  0  0  0  0  0
    2.0276   -7.4856   -0.5103 O   0  0  0  0  0  0  0  0  0  0  0  0
    2.2773   -8.5830    0.2963 C   0  0  0  0  0  0  0  0  0  0  0  0
    2.7363   -8.4379    1.5450 C   0  0  0  0  0  0  0  0  0  0  0  0
    3.0597   -7.1097    2.1300 C   0  0  0  0  0  0  0  0  0  0  0  0
    2.9331   -9.6553    2.3776 C   0  0  0  0  0  0  0  0  0  0  0  0
    3.2910   -9.5319    3.6131 N   0  0  0  0  0  0  0  0  0  0  0  0
    3.4478  -10.6641    4.3837 C   0  0  0  0  0  0  0  0  0  0  0  0
    3.6680  -10.5194    5.5790 O   0  0  0  0  0  0  0  0  0  0  0  0
    3.3829  -11.9401    3.8683 N   0  0  0  0  0  0  0  0  0  0  0  0
    3.0230  -12.0983    2.6393 C   0  0  0  0  0  0  0  0  0  0  0  0
    2.7029  -10.9779    1.7437 C   0  0  0  0  0  0  0  0  0  0  0  0
    2.2578  -10.9993    0.4719 C   0  0  0  0  0  0  0  0  0  0  0  0
    2.0432   -9.8240   -0.2483 N   0  0  0  0  0  0  0  0  0  0  0  0
    1.9885  -12.2977   -0.2219 C   0  0  0  0  0  0  0  0  0  0  0  0
    1.7374  -13.3495    0.3361 O   0  0  0  0  0  0  0  0  0  0  0  0
    2.0211  -12.1636   -1.5660 O   0  0  0  0  0  0  0  0  0  0  0  0
    2.1890   -5.1413   -1.1350 C   0  0  0  0  0  0  0  0  0  0  0  0
    1.8841   -3.9333   -0.6122 N   0  0  0  0  0  0  0  0  0  0  0  0
    1.6295   -2.9376   -1.4593 C   0  0  0  0  0  0  0  0  0  0  0  0
    1.6275   -3.0319   -2.7903 N   0  0  0  0  0  0  0  0  0  0  0  0
    1.9136   -4.2229   -3.3142 C   0  0  0  0  0  0  0  0  0  0  0  0
    2.2218   -5.3542   -2.5372 C   0  0  0  0  0  0  0  0  0  0  0  0
    2.5273   -6.5664   -3.2211 C   0  0  0  0  0  0  0  0  0  0  0  0
    2.4796   -6.6547   -4.6172 C   0  0  0  0  0  0  0  0  0  0  0  0
    2.2010   -5.5144   -5.3655 C   0  0  0  0  0  0  0  0  0  0  0  0
    1.9102   -4.3218   -4.7015 C   0  0  0  0  0  0  0  0  0  0  0  0
    2.2002   -5.4440   -6.7352 O   0  0  0  0  0  0  0  0  0  0  0  0
    2.6455   -6.5998   -7.4750 C   0  0  2  0  0  0  0  0  0  0  0  0
    2.2379   -7.8685   -6.7698 C   0  0  0  0  0  0  0  0  0  0  0  0
    1.0935   -8.9454   -7.3389 S   0  0  0  0  0  0  0  0  0  0  0  0
    2.6823   -7.9251   -5.3420 C   0  0  0  0  0  0  0  0  0  0  0  0
    3.4530   -9.2991   -4.7757 S   0  0  0  0  0  0  0  0  0  0  0  0
    4.1267   -6.5238   -7.7139 C   0  0  1  0  0  0  0  0  0  0  0  0
    4.9834   -6.4147   -6.5565 O   0  0  0  0  0  0  0  0  0  0  0  0
    4.6149   -7.4156   -8.7396 O   0  0  0  0  0  0  0  0  0  0  0  0
    4.6662   -6.1037   -8.9877 C   0  0  0  0  0  0  0  0  0  0  0  0
    4.2402   -5.4216   -9.8908 O   0  0  0  0  0  0  0  0  0  0  0  0
    4.4337   -3.1175    2.9571 C   0  0  0  0  0  0  0  0  0  0  0  0
    3.5467   -2.2774    2.9101 O   0  0  0  0  0  0  0  0  0  0  0  0
    5.7664   -2.7980    3.5949 C   0  0  0  0  0  0  0  0  0  0  0  0
    6.0523   -1.6546    3.9131 O   0  0  0  0  0  0  0  0  0  0  0  0
    6.7583   -3.9189    3.8164 C   0  0  0  0  0  0  0  0  0  0  0  0
    7.5685   -3.9001    4.7266 O   0  0  0  0  0  0  0  0  0  0  0  0
  1  2  1  0  0  0  0
  2  3  2  0  0  0  0
  3  4  1  0  0  0  0
  3 50  1  0  0  0  0
  4  5  1  0  0  0  0
  5  6  1  6  0  0  0
  5 46  1  0  0  0  0
  6  7  1  0  0  0  0
  7  8  2  0  0  0  0
  7 12  1  0  0  0  0
  8  9  1  0  0  0  0
  8 25  1  0  0  0  0
  9 10  1  0  0  0  0
 10 11  2  0  0  0  0
 10 21  1  0  0  0  0
 11 12  1  0  0  0  0
 11 13  1  0  0  0  0
 13 14  2  0  0  0  0
 13 19  1  0  0  0  0
 14 15  1  0  0  0  0
 15 16  2  0  0  0  0
 15 17  1  0  0  0  0
 17 18  2  0  0  0  0
 18 19  1  0  0  0  0
 19 20  2  0  0  0  0
 20 21  1  0  0  0  0
 20 22  1  0  0  0  0
 22 23  2  0  0  0  0
 22 24  1  0  0  0  0
 25 26  2  0  0  0  0
 25 30  1  0  0  0  0
 26 27  1  0  0  0  0
 27 28  2  0  0  0  0
 28 29  1  0  0  0  0
 29 30  2  0  0  0  0
 29 34  1  0  0  0  0
 30 31  1  0  0  0  0
 31 32  2  0  0  0  0
 32 33  1  0  0  0  0
 32 39  1  0  0  0  0
 33 34  2  0  0  0  0
 33 35  1  0  0  0  0
 36 35  1  1  0  0  0
 36 37  1  0  0  0  0
 36 41  1  0  0  0  0
 37 38  2  0  0  0  0
 37 39  1  0  0  0  0
 39 40  2  0  0  0  0
 41 42  1  1  0  0  0
 41 43  1  0  0  0  0
 41 44  1  0  0  0  0
 43 44  1  0  0  0  0
 44 45  2  0  0  0  0
 46 47  2  0  0  0  0
 46 48  1  0  0  0  0
 48 49  2  0  0  0  0
 48 50  1  0  0  0  0
 50 51  2  0  0  0  0
M  END
$$$$