
 OpenBabel09212005503D

 48 54  0  0  1  0  0  0  0  0999 V2000
   -0.6671   -9.2552    8.1521 O   0  0  0  0  0  0  0  0  0  0  0  0
   -1.6480   -8.6532    8.9958 C   0  0  0  0  0  0  0  0  0  0  0  0
   -1.3863   -7.1475    9.1538 C   0  0  2  0  0  0  0  0  0  0  0  0
   -1.4361   -6.4677    7.8963 O   0  0  0  0  0  0  0  0  0  0  0  0
   -0.2856   -6.5120    7.1552 C   0  0  0  0  0  0  0  0  0  0  0  0
   -0.4246   -6.2910    5.7853 C   0  0  0  0  0  0  0  0  0  0  0  0
    0.6866   -6.3696    4.9234 C   0  0  0  0  0  0  0  0  0  0  0  0
    0.5389   -6.1820    3.5463 C   0  0  0  0  0  0  0  0  0  0  0  0
    1.6553   -6.2763    2.7340 C   0  0  0  0  0  0  0  0  0  0  0  0
    2.8961   -6.5362    3.1889 N   0  0  0  0  0  0  0  0  0  0  0  0
    3.0416   -6.7237    4.5258 C   0  0  0  0  0  0  0  0  0  0  0  0
    1.9705   -6.6504    5.4461 C   0  0  0  0  0  0  0  0  0  0  0  0
    2.0972   -6.8359    6.8399 C   0  0  0  0  0  0  0  0  0  0  0  0
    0.9784   -6.7678    7.6765 C   0  0  0  0  0  0  0  0  0  0  0  0
    1.1394   -6.9822    9.1194 C   0  0  0  0  0  0  0  0  0  0  0  0
    2.2285   -7.1940    9.6316 O   0  0  0  0  0  0  0  0  0  0  0  0
   -0.1220   -6.9217    9.9463 C   0  0  0  0  0  0  0  0  0  0  0  0
   -0.0845   -6.7269   11.1531 O   0  0  0  0  0  0  0  0  0  0  0  0
    4.4280   -6.9963    4.9490 C   0  0  0  0  0  0  0  0  0  0  0  0
    4.9407   -8.2407    5.0219 C   0  0  0  0  0  0  0  0  0  0  0  0
    4.1467   -9.3422    4.7218 O   0  0  0  0  0  0  0  0  0  0  0  0
    4.3804  -10.5881    5.3778 C   0  0  1  0  0  0  0  0  0  0  0  0
    4.8934  -10.4205    6.6986 O   0  0  0  0  0  0  0  0  0  0  0  0
    5.3162  -11.6498    7.3026 C   0  0  1  0  0  0  0  0  0  0  0  0
    6.0796  -11.2789    8.5655 C   0  0  0  0  0  0  0  0  0  0  0  0
    7.2066  -10.4828    8.1923 O   0  0  0  0  0  0  0  0  0  0  0  0
    4.0801  -12.4491    7.6288 C   0  0  0  0  0  0  0  0  0  0  0  0
    4.0447  -13.4244    8.3469 O   0  0  0  0  0  0  0  0  0  0  0  0
    2.8583  -11.9699    6.8637 C   0  0  0  0  0  0  0  0  0  0  0  0
    1.7510  -12.0331    7.3609 O   0  0  0  0  0  0  0  0  0  0  0  0
    3.0674  -11.3645    5.4876 C   0  0  0  0  0  0  0  0  0  0  0  0
    2.2732  -11.5761    4.5891 O   0  0  0  0  0  0  0  0  0  0  0  0
    6.3984   -8.4107    5.3738 C   0  0  0  0  0  0  0  0  0  0  0  0
    7.0242   -7.1814    5.9712 C   0  0  0  0  0  0  0  0  0  0  0  0
    6.3759   -5.9618    5.8346 C   0  0  0  0  0  0  0  0  0  0  0  0
    5.1418   -5.8467    5.2408 O   0  0  0  0  0  0  0  0  0  0  0  0
    6.8781   -4.7958    6.2798 N   0  0  0  0  0  0  0  0  0  0  0  0
    8.0885   -4.8189    6.9025 C   0  0  0  0  0  0  0  0  0  0  0  0
    8.7064   -3.5548    7.3386 N   0  0  0  0  0  0  0  0  0  0  0  0
    9.8195   -3.2774    6.8663 O   0  0  0  0  0  0  0  0  0  0  0  0
    8.0874   -2.8782    8.1696 O   0  0  0  0  0  0  0  0  0  0  0  0
    8.8026   -5.9964    7.1414 C   0  0  0  0  0  0  0  0  0  0  0  0
    8.2501   -7.1861    6.6573 C   0  0  0  0  0  0  0  0  0  0  0  0
    8.9549   -8.3782    6.8897 N   0  0  0  0  0  0  0  0  0  0  0  0
   10.0726   -8.4850    7.6612 C   0  0  0  0  0  0  0  0  0  0  0  0
   10.6252   -9.5619    7.8525 O   0  0  0  0  0  0  0  0  0  0  0  0
   10.5300   -7.3474    8.2352 N   0  0  0  0  0  0  0  0  0  0  0  0
   10.1451   -6.0300    7.8071 C   0  0  0  0  0  0  0  0  0  0  0  0
  1  2  1  0  0  0  0
  3  4  1  0  0  0  0
  3 17  1  0  0  0  0
  3  2  1  6  0  0  0
  4  5  1  0  0  0  0
  5  6  2  0  0  0  0
  5 14  1  0  0  0  0
  6  7  1  0  0  0  0
  7  8  2  0  0  0  0
  7 12  1  0  0  0  0
  8  9  1  0  0  0  0
  9 10  2  0  0  0  0
 10 11  1  0  0  0  0
 11 12  2  0  0  0  0
 11 19  1  0  0  0  0
 12 13  1  0  0  0  0
 13 14  2  0  0  0  0
 14 15  1  0  0  0  0
 15 16  2  0  0  0  0
 15 17  1  0  0  0  0
 17 18  2  0  0  0  0
 19 20  2  0  0  0  0
 19 36  1  0  0  0  0
 20 21  1  0  0  0  0
 20 33  1  0  0  0  0
 22 21  1  1  0  0  0
 22 23  1  0  0  0  0
 22 31  1  0  0  0  0
 23 24  1  0  0  0  0
 24 27  1  0  0  0  0
 24 25  1  1  0  0  0
 25 26  1  0  0  0  0
 27 28  2  0  0  0  0
 27 29  1  0  0  0  0
 29 30  2  0  0  0  0
 29 31  1  0  0  0  0
 31 32  2  0  0  0  0
 33 34  1  0  0  0  0
 34 35  2  0  0  0  0
 34 43  1  0  0  0  0
 35 36  1  0  0  0  0
 35 37  1  0  0  0  0
 37 38  2  0  0  0  0
 38 39  1  0  0  0  0
 38 42  1  0  0  0  0
 39 40  2  0  0  0  0
 39 41  2  0  0  0  0
 42 43  2  0  0  0  0
 42 48  1  0  0  0  0
 43 44  1  0  0  0  0
 44 45  1  0  0  0  0
 45 46  2  0  0  0  0
 45 47  1  0  0  0  0
 47 48  1  0  0  0  0
M  END
$$$$