
 OpenBabel11232014583D

 54 62  0  0  1  0  0  0  0  0999 V2000
    6.5408    2.0695    5.3701 O   0  0  0  0  0  0  0  0  0  0  0  0
    6.0485    2.4294    4.1398 C   0  0  0  0  0  0  0  0  0  0  0  0
    5.0363    1.7891    3.5432 C   0  0  0  0  0  0  0  0  0  0  0  0
    4.4512    0.6727    4.1186 O   0  0  0  0  0  0  0  0  0  0  0  0
    3.0329    0.6776    3.9897 C   0  0  2  0  0  0  0  0  0  0  0  0
    2.4550   -0.4816    4.6275 O   0  0  0  0  0  0  0  0  0  0  0  0
    2.7720   -0.7163    5.9528 C   0  0  0  0  0  0  0  0  0  0  0  0
    2.8711   -1.9815    6.4026 C   0  0  0  0  0  0  0  0  0  0  0  0
    3.1517   -2.2982    7.7280 O   0  0  0  0  0  0  0  0  0  0  0  0
    3.3514   -1.2707    8.6531 C   0  0  0  0  0  0  0  0  0  0  0  0
    3.2368    0.0276    8.3032 C   0  0  0  0  0  0  0  0  0  0  0  0
    2.9230    0.4532    6.8921 C   0  0  0  0  0  0  0  0  0  0  0  0
    3.4616    1.1404    9.2985 C   0  0  3  0  0  0  0  0  0  0  0  0
    2.2812    1.9069    9.3867 O   0  0  0  0  0  0  0  0  0  0  0  0
    2.3011    2.9453   10.2732 C   0  0  0  0  0  0  0  0  0  0  0  0
    1.5369    3.8859   10.1451 O   0  0  0  0  0  0  0  0  0  0  0  0
    3.1953    2.8616   11.2937 O   0  0  0  0  0  0  0  0  0  0  0  0
    3.7990    1.7068   11.6186 C   0  0  0  0  0  0  0  0  0  0  0  0
    4.4528    1.5554   12.6392 O   0  0  0  0  0  0  0  0  0  0  0  0
    3.7084    0.6174   10.6509 C   0  0  0  0  0  0  0  0  0  0  0  0
    3.8248   -0.6945   10.9521 C   0  0  0  0  0  0  0  0  0  0  0  0
    3.6767   -1.6374    9.9393 O   0  3  0  0  0  0  0  0  0  0  0  0
    4.0448   -1.2655   12.3013 C   0  0  3  0  0  0  0  0  0  0  0  0
    4.1811   -2.6912   12.3554 N   0  0  0  0  0  0  0  0  0  0  0  0
    3.0996   -2.2258   12.7474 N   0  0  0  0  0  0  0  0  0  0  0  0
    2.6910   -3.1440    5.5057 C   0  0  0  0  0  0  0  0  0  0  0  0
    1.4009   -3.6054    5.2575 C   0  0  0  0  0  0  0  0  0  0  0  0
    1.1976   -4.6653    4.4674 N   0  3  0  0  0  0  0  0  0  0  0  0
   -0.0591   -5.0995    4.2604 F   0  0  0  0  0  0  0  0  0  0  0  0
    2.1861   -5.3182    3.8923 N   0  0  0  0  0  0  0  0  0  0  0  0
    3.4478   -4.8973    4.0459 C   0  0  0  0  0  0  0  0  0  0  0  0
    3.7622   -3.7873    4.8511 C   0  0  0  0  0  0  0  0  0  0  0  0
    5.1169   -3.3870    4.9579 C   0  0  0  0  0  0  0  0  0  0  0  0
    6.1364   -4.0852    4.2915 C   0  0  0  0  0  0  0  0  0  0  0  0
    7.5374   -3.7113    4.5030 C   0  0  0  0  0  0  0  0  0  0  0  0
    7.8273   -2.8065    5.2686 O   0  0  0  0  0  0  0  0  0  0  0  0
    8.5783   -4.5563    3.8038 C   0  0  0  0  0  0  0  0  0  0  0  0
    9.7300   -4.5823    4.2082 O   0  0  0  0  0  0  0  0  0  0  0  0
    8.0562   -5.3352    2.6161 C   0  0  1  0  0  0  0  0  0  0  0  0
    6.7489   -5.9104    2.7961 O   0  0  0  0  0  0  0  0  0  0  0  0
    5.8328   -5.1689    3.4889 C   0  0  0  0  0  0  0  0  0  0  0  0
    4.4944   -5.5657    3.3939 C   0  0  0  0  0  0  0  0  0  0  0  0
    4.1769   -6.6644    2.6291 O   0  0  0  0  0  0  0  0  0  0  0  0
    8.0825   -4.5087    1.3721 C   0  0  1  0  0  0  0  0  0  0  0  0
    7.3147   -3.2780    1.3954 O   0  0  0  0  0  0  0  0  0  0  0  0
    9.3322   -4.4520    0.6950 O   0  0  0  0  0  0  0  0  0  0  0  0
    8.3306   -5.0704    0.0417 C   0  0  0  0  0  0  0  0  0  0  0  0
    7.7839   -4.7936   -1.0053 O   0  0  0  0  0  0  0  0  0  0  0  0
    2.5950    0.6110    2.5351 C   0  0  0  0  0  0  0  0  0  0  0  0
    1.6312   -0.0152    2.1283 O   0  0  0  0  0  0  0  0  0  0  0  0
    3.4823    1.4136    1.6132 C   0  0  0  0  0  0  0  0  0  0  0  0
    3.3738    1.3062    0.4040 O   0  0  0  0  0  0  0  0  0  0  0  0
    4.5534    2.2926    2.2259 C   0  0  0  0  0  0  0  0  0  0  0  0
    4.9178    3.3324    1.7093 O   0  0  0  0  0  0  0  0  0  0  0  0
  1  2  1  0  0  0  0
  2  3  2  0  0  0  0
  3  4  1  0  0  0  0
  3 53  1  0  0  0  0
  4  5  1  0  0  0  0
  5  6  1  1  0  0  0
  5 49  1  0  0  0  0
  6  7  1  0  0  0  0
  7  8  2  0  0  0  0
  7 12  1  0  0  0  0
  8  9  1  0  0  0  0
  8 26  1  0  0  0  0
  9 10  1  0  0  0  0
 10 11  2  0  0  0  0
 10 22  1  0  0  0  0
 11 12  1  0  0  0  0
 11 13  1  0  0  0  0
 13 14  1  0  0  0  0
 13 20  1  0  0  0  0
 14 15  1  0  0  0  0
 15 16  2  0  0  0  0
 15 17  1  0  0  0  0
 17 18  1  0  0  0  0
 18 19  2  0  0  0  0
 18 20  1  0  0  0  0
 20 21  2  0  0  0  0
 21 22  1  0  0  0  0
 21 23  1  0  0  0  0
 23 24  1  0  0  0  0
 23 25  1  0  0  0  0
 24 25  2  0  0  0  0
 26 27  2  0  0  0  0
 26 32  1  0  0  0  0
 27 28  1  0  0  0  0
 28 29  1  0  0  0  0
 28 30  2  0  0  0  0
 30 31  1  0  0  0  0
 31 32  2  0  0  0  0
 31 42  1  0  0  0  0
 32 33  1  0  0  0  0
 33 34  2  0  0  0  0
 34 35  1  0  0  0  0
 34 41  1  0  0  0  0
 35 36  2  0  0  0  0
 35 37  1  0  0  0  0
 37 38  2  0  0  0  0
 39 37  1  1  0  0  0
 39 40  1  0  0  0  0
 39 44  1  0  0  0  0
 40 41  1  0  0  0  0
 41 42  2  0  0  0  0
 42 43  1  0  0  0  0
 44 45  1  1  0  0  0
 44 46  1  0  0  0  0
 44 47  1  0  0  0  0
 46 47  1  0  0  0  0
 47 48  2  0  0  0  0
 49 50  2  0  0  0  0
 49 51  1  0  0  0  0
 51 52  2  0  0  0  0
 51 53  1  0  0  0  0
 53 54  2  0  0  0  0
M  CHG  2  22   1  28   1
M  END
$$$$