
 OpenBabel11142013343D

 93108  0  0  1  0  0  0  0  0999 V2000
    5.9249    3.9569    1.7024 F   0  0  0  0  0  0  0  0  0  0  0  0
    6.4165    4.8702    0.8218 C   0  0  3  0  0  0  0  0  0  0  0  0
    7.8792    5.1830    1.1926 C   0  0  0  0  0  0  0  0  0  0  0  0
    8.1658    6.7001    1.1779 C   0  0  3  0  0  0  0  0  0  0  0  0
    9.6535    6.9943    1.3824 C   0  0  0  0  0  0  0  0  0  0  0  0
    9.9712    7.4373    2.7975 C   0  0  0  0  0  0  0  0  0  0  0  0
    9.0652    8.6030    3.2037 C   0  0  3  0  0  0  0  0  0  0  0  0
    7.6109    8.1713    3.2513 C   0  0  0  0  0  0  0  0  0  0  0  0
    7.1928    7.3352    2.1732 C   0  0  0  0  0  0  0  0  0  0  0  0
    5.8444    6.9487    2.0177 C   0  0  0  0  0  0  0  0  0  0  0  0
    5.4924    6.1117    0.7966 C   0  0  3  0  0  0  0  0  0  0  0  0
    3.9826    5.7802    0.5608 C   0  0  3  0  0  0  0  0  0  0  0  0
    3.0612    6.6298    1.4793 C   0  0  0  0  0  0  0  0  0  0  0  0
    3.5375    6.7155    2.9283 C   0  0  0  0  0  0  0  0  0  0  0  0
    4.9242    7.2865    2.9959 C   0  0  0  0  0  0  0  0  0  0  0  0
    5.3422    8.0713    4.0886 C   0  0  0  0  0  0  0  0  0  0  0  0
    6.6621    8.5808    4.2400 C   0  0  0  0  0  0  0  0  0  0  0  0
    6.9469    9.4730    5.4243 C   0  0  0  0  0  0  0  0  0  0  0  0
    8.1544    9.4205    6.1373 C   0  0  0  0  0  0  0  0  0  0  0  0
    8.4807   10.2833    7.2156 C   0  0  0  0  0  0  0  0  0  0  0  0
    9.8411   10.1211    7.8836 C   0  0  3  0  0  0  0  0  0  0  0  0
    9.8625    8.7474    8.5748 C   0  0  0  0  0  0  0  0  0  0  0  0
   11.1503    8.4865    9.3299 C   0  0  0  0  0  0  0  0  0  0  0  0
   11.4286    9.5815   10.3614 C   0  0  3  0  0  0  0  0  0  0  0  0
   11.5058   10.9570    9.6569 C   0  0  3  0  0  0  0  0  0  0  0  0
   10.2126   11.2788    8.8469 C   0  0  3  0  0  0  0  0  0  0  0  0
    8.9947   11.6437    9.7141 C   0  0  0  0  0  0  0  0  0  0  0  0
    7.8019   12.1126    8.8562 C   0  0  3  0  0  0  0  0  0  0  0  0
    7.5222   11.1824    7.6905 C   0  0  0  0  0  0  0  0  0  0  0  0
    6.2710   11.1971    7.0618 C   0  0  0  0  0  0  0  0  0  0  0  0
    6.0063   10.3815    5.9489 C   0  0  0  0  0  0  0  0  0  0  0  0
    4.7883   10.5009    5.3930 F   0  0  0  0  0  0  0  0  0  0  0  0
    8.0084   13.5505    8.3583 C   0  0  0  0  0  0  0  0  0  0  0  0
   11.8753   12.0850   10.6281 C   0  0  0  0  0  0  0  0  0  0  0  0
   12.7032    9.2201   11.1283 C   0  0  0  0  0  0  0  0  0  0  0  0
    3.5227    6.0027   -0.9467 C   0  0  3  0  0  0  0  0  0  0  0  0
    3.7183    7.4099   -1.2505 O   0  0  0  0  0  0  0  0  0  0  0  0
    3.7975    7.7959   -2.5516 C   0  0  0  0  0  0  0  0  0  0  0  0
    4.3691    7.0012   -3.5063 C   0  0  0  0  0  0  0  0  0  0  0  0
    4.9351    5.6600   -3.0972 C   0  0  3  0  0  0  0  0  0  0  0  0
    4.1227    4.9736   -1.9706 C   0  0  3  0  0  0  0  0  0  0  0  0
    3.0348    4.1914   -2.5333 O   0  0  0  0  0  0  0  0  0  0  0  0
    3.3515    2.9647   -3.0756 C   0  0  0  0  0  0  0  0  0  0  0  0
    4.4210    2.1496   -2.6863 C   0  0  0  0  0  0  0  0  0  0  0  0
    4.6856    0.9538   -3.3631 C   0  0  0  0  0  0  0  0  0  0  0  0
    3.8851    0.5593   -4.4306 C   0  0  0  0  0  0  0  0  0  0  0  0
    2.8163    1.3606   -4.8235 C   0  0  0  0  0  0  0  0  0  0  0  0
    2.5399    2.5482   -4.1364 C   0  0  0  0  0  0  0  0  0  0  0  0
    5.1004    4.8993   -4.2983 O   0  0  0  0  0  0  0  0  0  0  0  0
    4.5542    7.5079   -4.8162 C   0  0  0  0  0  0  0  0  0  0  0  0
    4.2140    8.8436   -5.1874 C   0  0  0  0  0  0  0  0  0  0  0  0
    3.6310    9.6330   -4.2083 C   0  0  0  0  0  0  0  0  0  0  0  0
    3.4214    9.1090   -2.8947 C   0  0  0  0  0  0  0  0  0  0  0  0
    2.9049    9.9125   -1.9602 F   0  0  0  0  0  0  0  0  0  0  0  0
    3.2904   10.9590   -4.5620 C   0  0  0  0  0  0  0  0  0  0  0  0
    2.5893   11.7958   -3.7291 O   0  0  0  0  0  0  0  0  0  0  0  0
    3.6238   11.5113   -5.8079 C   0  0  0  0  0  0  0  0  0  0  0  0
    4.2520   10.7641   -6.8225 C   0  0  0  0  0  0  0  0  0  0  0  0
    4.4741    9.4029   -6.4937 C   0  0  0  0  0  0  0  0  0  0  0  0
    4.9640    8.6176   -7.5167 O   0  0  0  0  0  0  0  0  0  0  0  0
    4.5610   11.3798   -8.1771 C   0  0  0  0  0  0  0  0  0  0  0  0
    3.7165   12.4052   -8.6703 C   0  0  0  0  0  0  0  0  0  0  0  0
    3.7041   12.8996  -10.0209 C   0  0  0  0  0  0  0  0  0  0  0  0
    2.7253   13.8125  -10.7208 C   0  0  0  0  0  0  0  0  0  0  0  0
    2.9814   14.2042  -12.0481 C   0  0  0  0  0  0  0  0  0  0  0  0
    2.0175   14.8627  -12.8685 N   0  0  0  0  0  0  0  0  0  0  0  0
    4.1535   13.7085  -12.6188 C   0  0  0  0  0  0  0  0  0  0  0  0
    5.0216   12.8840  -12.0061 N   0  0  0  0  0  0  0  0  0  0  0  0
    4.8029   12.4522  -10.7666 N   0  3  0  0  0  0  0  0  0  0  0  0
    5.7167   11.5737  -10.2658 N   0  3  0  0  0  0  0  0  0  0  0  0
    5.6142   11.0063   -9.0352 C   0  0  0  0  0  0  0  0  0  0  0  0
    6.6183   10.1664   -8.6665 O   0  0  0  0  0  0  0  0  0  0  0  0
    6.8320   11.1439  -11.0072 O   0  0  0  0  0  0  0  0  0  0  0  0
    1.3793   14.3801  -10.0756 N   0  3  0  0  0  0  0  0  0  0  0  0
    0.8276   15.6257  -10.4434 N   0  3  0  0  0  0  0  0  0  0  0  0
    1.5836   16.6084  -11.0907 O   0  0  0  0  0  0  0  0  0  0  0  0
   -0.3557   16.1147   -9.9192 C   0  0  0  0  0  0  0  0  0  0  0  0
   -1.0836   15.4714   -8.8846 C   0  0  0  0  0  0  0  0  0  0  0  0
   -0.5297   14.2630   -8.4457 C   0  0  0  0  0  0  0  0  0  0  0  0
    0.6327   13.6700   -9.1370 C   0  0  0  0  0  0  0  0  0  0  0  0
    0.9161   12.3092   -8.9194 N   0  0  0  0  0  0  0  0  0  0  0  0
   -1.0916   13.6790   -7.3675 N   0  0  0  0  0  0  0  0  0  0  0  0
   -2.1235   14.2050   -6.6844 N   0  3  0  0  0  0  0  0  0  0  0  0
   -2.8025   15.3191   -7.1121 C   0  0  0  0  0  0  0  0  0  0  0  0
   -2.2810   15.9337   -8.2544 N   0  3  0  0  0  0  0  0  0  0  0  0
   -2.9893   16.9852   -8.7850 N   0  0  0  0  0  0  0  0  0  0  0  0
   -4.1643   17.4148   -8.2307 N   0  3  0  0  0  0  0  0  0  0  0  0
   -4.9766   18.4793   -8.9196 C   0  0  0  0  0  0  0  0  0  0  0  0
   -4.6126   16.8740   -7.0822 C   0  0  0  0  0  0  0  0  0  0  0  0
   -3.9288   15.8513   -6.5318 N   0  3  0  0  0  0  0  0  0  0  0  0
   -4.3945   15.2818   -5.3353 O   0  0  0  0  0  0  0  0  0  0  0  0
   -2.5402   13.5822   -5.5126 O   0  0  0  0  0  0  0  0  0  0  0  0
    9.1623    9.6685    2.2535 O   0  0  0  0  0  0  0  0  0  0  0  0
  1  2  1  0  0  0  0
  2  3  1  0  0  0  0
  2 11  1  0  0  0  0
  3  4  1  0  0  0  0
  4  5  1  0  0  0  0
  4  9  1  0  0  0  0
  5  6  1  0  0  0  0
  6  7  1  0  0  0  0
  7  8  1  0  0  0  0
  7 93  1  0  0  0  0
  8  9  2  0  0  0  0
  8 17  1  0  0  0  0
  9 10  1  0  0  0  0
 10 11  1  0  0  0  0
 10 15  2  0  0  0  0
 11 12  1  0  0  0  0
 12 13  1  0  0  0  0
 12 36  1  0  0  0  0
 13 14  1  0  0  0  0
 14 15  1  0  0  0  0
 15 16  1  0  0  0  0
 16 17  2  0  0  0  0
 17 18  1  0  0  0  0
 18 19  2  0  0  0  0
 18 31  1  0  0  0  0
 19 20  1  0  0  0  0
 20 21  1  0  0  0  0
 20 29  2  0  0  0  0
 21 22  1  0  0  0  0
 21 26  1  0  0  0  0
 22 23  1  0  0  0  0
 23 24  1  0  0  0  0
 24 25  1  0  0  0  0
 24 35  1  0  0  0  0
 25 26  1  0  0  0  0
 25 34  1  0  0  0  0
 26 27  1  0  0  0  0
 27 28  1  0  0  0  0
 28 29  1  0  0  0  0
 28 33  1  0  0  0  0
 29 30  1  0  0  0  0
 30 31  2  0  0  0  0
 31 32  1  0  0  0  0
 36 37  1  0  0  0  0
 36 41  1  0  0  0  0
 37 38  1  0  0  0  0
 38 39  2  0  0  0  0
 38 53  1  0  0  0  0
 39 40  1  0  0  0  0
 39 50  1  0  0  0  0
 40 41  1  0  0  0  0
 40 49  1  0  0  0  0
 41 42  1  0  0  0  0
 42 43  1  0  0  0  0
 43 44  2  0  0  0  0
 43 48  1  0  0  0  0
 44 45  1  0  0  0  0
 45 46  2  0  0  0  0
 46 47  1  0  0  0  0
 47 48  2  0  0  0  0
 50 51  2  0  0  0  0
 51 52  1  0  0  0  0
 51 59  1  0  0  0  0
 52 53  2  0  0  0  0
 52 55  1  0  0  0  0
 53 54  1  0  0  0  0
 55 56  1  0  0  0  0
 55 57  2  0  0  0  0
 57 58  1  0  0  0  0
 58 59  2  0  0  0  0
 58 61  1  0  0  0  0
 59 60  1  0  0  0  0
 61 62  2  0  0  0  0
 61 71  1  0  0  0  0
 62 63  1  0  0  0  0
 63 64  2  0  0  0  0
 63 69  1  0  0  0  0
 64 65  1  0  0  0  0
 64 74  1  0  0  0  0
 65 66  1  0  0  0  0
 65 67  2  0  0  0  0
 67 68  1  0  0  0  0
 68 69  2  0  0  0  0
 69 70  1  0  0  0  0
 70 71  2  0  0  0  0
 70 73  1  0  0  0  0
 71 72  1  0  0  0  0
 74 75  2  0  0  0  0
 74 80  1  0  0  0  0
 75 76  1  0  0  0  0
 75 77  1  0  0  0  0
 77 78  2  0  0  0  0
 78 79  1  0  0  0  0
 78 85  1  0  0  0  0
 79 80  2  0  0  0  0
 79 82  1  0  0  0  0
 80 81  1  0  0  0  0
 82 83  2  0  0  0  0
 83 84  1  0  0  0  0
 83 92  1  0  0  0  0
 84 85  2  0  0  0  0
 84 90  1  0  0  0  0
 85 86  1  0  0  0  0
 86 87  2  0  0  0  0
 87 88  1  0  0  0  0
 87 89  1  0  0  0  0
 89 90  2  0  0  0  0
 90 91  1  0  0  0  0
M  CHG  8  69   1  70   1  74   1  75   1  83   1  85   1  87   1  90   1
M  END
$$$$