
 OpenBabel11242002213D

 55 63  0  0  1  0  0  0  0  0999 V2000
    0.0550    1.3683   -2.5445 O   0  0  0  0  0  0  0  0  0  0  0  0
    1.0849    1.0896   -1.6841 C   0  0  0  0  0  0  0  0  0  0  0  0
    1.8545    0.0027   -1.8066 C   0  0  0  0  0  0  0  0  0  0  0  0
    1.6212   -0.9435   -2.7956 O   0  0  0  0  0  0  0  0  0  0  0  0
    2.8094   -1.2690   -3.4997 C   0  0  2  0  0  0  0  0  0  0  0  0
    2.5113   -2.2401   -4.5380 O   0  0  0  0  0  0  0  0  0  0  0  0
    2.8065   -1.9562   -5.8650 C   0  0  0  0  0  0  0  0  0  0  0  0
    2.9973   -2.9353   -6.7865 C   0  0  0  0  0  0  0  0  0  0  0  0
    3.2203   -2.6319   -8.1432 O   0  0  0  0  0  0  0  0  0  0  0  0
    3.1605   -1.3155   -8.6066 C   0  0  0  0  0  0  0  0  0  0  0  0
    3.0149   -0.3008   -7.7407 C   0  0  0  0  0  0  0  0  0  0  0  0
    2.8225   -0.5115   -6.2778 C   0  0  0  0  0  0  0  0  0  0  0  0
    3.0485    1.1289   -8.1665 C   0  0  3  0  0  0  0  0  0  0  0  0
    4.2126    1.7052   -7.6249 O   0  0  0  0  0  0  0  0  0  0  0  0
    4.4077    3.0248   -7.8998 C   0  0  0  0  0  0  0  0  0  0  0  0
    5.2104    3.6984   -7.2421 O   0  0  0  0  0  0  0  0  0  0  0  0
    3.6683    3.5414   -8.8998 O   0  0  0  0  0  0  0  0  0  0  0  0
    3.1758    2.7263   -9.9619 C   0  0  3  0  0  0  0  0  0  0  0  0
    3.1733    1.2724   -9.6310 C   0  0  0  0  0  0  0  0  0  0  0  0
    3.2627    0.2193  -10.4718 C   0  0  0  0  0  0  0  0  0  0  0  0
    3.2730   -1.0821   -9.9656 O   0  3  0  0  0  0  0  0  0  0  0  0
    3.3341    0.3375  -11.9517 C   0  0  0  0  0  0  0  0  0  0  0  0
    4.0479   -0.6370  -12.7284 O   0  0  0  0  0  0  0  0  0  0  0  0
    2.6102   -0.5785  -12.7874 O   0  0  0  0  0  0  0  0  0  0  0  0
    1.8139    3.0322  -10.1775 O   0  0  0  0  0  0  0  0  0  0  0  0
    2.9843   -4.4077   -6.4689 C   0  0  0  0  0  0  0  0  0  0  0  0
    3.4682   -4.8408   -5.2355 C   0  0  0  0  0  0  0  0  0  0  0  0
    3.4568   -6.1267   -4.8796 N   0  3  0  0  0  0  0  0  0  0  0  0
    3.9384   -6.4716   -3.6691 F   0  0  0  0  0  0  0  0  0  0  0  0
    2.9788   -7.0716   -5.6620 N   0  0  0  0  0  0  0  0  0  0  0  0
    2.5058   -6.7504   -6.8689 C   0  0  0  0  0  0  0  0  0  0  0  0
    2.5152   -5.4219   -7.3454 C   0  0  0  0  0  0  0  0  0  0  0  0
    2.0423   -5.2067   -8.6609 C   0  0  0  0  0  0  0  0  0  0  0  0
    1.5491   -6.2449   -9.4560 C   0  0  0  0  0  0  0  0  0  0  0  0
    1.1614   -5.9638  -10.8399 C   0  0  0  0  0  0  0  0  0  0  0  0
    1.3069   -4.8451  -11.3101 O   0  0  0  0  0  0  0  0  0  0  0  0
    0.6863   -7.1541  -11.6386 C   0  0  0  0  0  0  0  0  0  0  0  0
    0.8677   -7.1858  -12.8447 O   0  0  0  0  0  0  0  0  0  0  0  0
    0.0796   -8.2626  -10.8020 C   0  0  1  0  0  0  0  0  0  0  0  0
    0.8222   -8.5511   -9.5938 O   0  0  0  0  0  0  0  0  0  0  0  0
    1.4330   -7.5182   -8.9461 C   0  0  0  0  0  0  0  0  0  0  0  0
    1.9558   -7.7567   -7.6722 C   0  0  0  0  0  0  0  0  0  0  0  0
    1.9087   -9.0056   -7.1818 F   0  0  0  0  0  0  0  0  0  0  0  0
   -1.4144   -8.0262  -10.5226 C   0  0  1  0  0  0  0  0  0  0  0  0
   -2.1769   -7.9207  -11.7327 O   0  0  0  0  0  0  0  0  0  0  0  0
   -1.9914   -9.0016   -9.6212 O   0  0  0  0  0  0  0  0  0  0  0  0
   -2.5535   -8.0147   -8.7204 C   0  0  0  0  0  0  0  0  0  0  0  0
   -1.7440   -6.9596   -9.4649 C   0  0  0  0  0  0  0  0  0  0  0  0
   -1.4090   -5.8116   -9.2576 O   0  0  0  0  0  0  0  0  0  0  0  0
    3.8686   -1.8937   -2.6054 C   0  0  0  0  0  0  0  0  0  0  0  0
    4.7032   -2.7055   -2.9903 O   0  0  0  0  0  0  0  0  0  0  0  0
    3.8341   -1.3928   -1.1830 C   0  0  0  0  0  0  0  0  0  0  0  0
    4.4499   -1.9946   -0.3205 O   0  0  0  0  0  0  0  0  0  0  0  0
    2.9936   -0.1752   -0.8622 C   0  0  0  0  0  0  0  0  0  0  0  0
    3.2906    0.5994    0.0273 O   0  0  0  0  0  0  0  0  0  0  0  0
  1  2  1  0  0  0  0
  2  3  2  0  0  0  0
  3  4  1  0  0  0  0
  3 54  1  0  0  0  0
  4  5  1  0  0  0  0
  5  6  1  6  0  0  0
  5 50  1  0  0  0  0
  6  7  1  0  0  0  0
  7  8  2  0  0  0  0
  7 12  1  0  0  0  0
  8  9  1  0  0  0  0
  8 26  1  0  0  0  0
  9 10  1  0  0  0  0
 10 11  2  0  0  0  0
 10 21  1  0  0  0  0
 11 12  1  0  0  0  0
 11 13  1  0  0  0  0
 13 14  1  0  0  0  0
 13 19  1  0  0  0  0
 14 15  1  0  0  0  0
 15 16  2  0  0  0  0
 15 17  1  0  0  0  0
 17 18  1  0  0  0  0
 18 19  1  0  0  0  0
 18 25  1  0  0  0  0
 19 20  2  0  0  0  0
 20 21  1  0  0  0  0
 20 22  1  0  0  0  0
 22 23  1  0  0  0  0
 22 24  1  0  0  0  0
 23 24  1  0  0  0  0
 26 27  2  0  0  0  0
 26 32  1  0  0  0  0
 27 28  1  0  0  0  0
 28 29  1  0  0  0  0
 28 30  2  0  0  0  0
 30 31  1  0  0  0  0
 31 32  2  0  0  0  0
 31 42  1  0  0  0  0
 32 33  1  0  0  0  0
 33 34  2  0  0  0  0
 34 35  1  0  0  0  0
 34 41  1  0  0  0  0
 35 36  2  0  0  0  0
 35 37  1  0  0  0  0
 37 38  2  0  0  0  0
 39 37  1  1  0  0  0
 39 40  1  0  0  0  0
 39 44  1  0  0  0  0
 40 41  1  0  0  0  0
 41 42  2  0  0  0  0
 42 43  1  0  0  0  0
 44 45  1  6  0  0  0
 44 46  1  0  0  0  0
 44 48  1  0  0  0  0
 46 47  1  0  0  0  0
 47 48  1  0  0  0  0
 48 49  2  0  0  0  0
 50 51  2  0  0  0  0
 50 52  1  0  0  0  0
 52 53  2  0  0  0  0
 52 54  1  0  0  0  0
 54 55  2  0  0  0  0
M  CHG  2  21   1  28   1
M  END
$$$$