
 OpenBabel10272000333D

 51 59  0  0  1  0  0  0  0  0999 V2000
    4.2531   -0.0407    1.1498 O   0  0  0  0  0  0  0  0  0  0  0  0
    2.9032   -0.2120    0.9980 C   0  0  0  0  0  0  0  0  0  0  0  0
    2.0069    0.5055    1.6799 C   0  0  0  0  0  0  0  0  0  0  0  0
    2.3994    1.5221    2.5269 O   0  0  0  0  0  0  0  0  0  0  0  0
    1.4491    2.5703    2.6629 C   0  0  2  0  0  0  0  0  0  0  0  0
    1.9654    3.6454    3.4406 O   0  0  0  0  0  0  0  0  0  0  0  0
    2.1225    3.5799    4.8037 C   0  0  0  0  0  0  0  0  0  0  0  0
    2.4208    2.5229    5.5983 C   0  0  0  0  0  0  0  0  0  0  0  0
    2.5614    2.6667    6.9746 O   0  0  0  0  0  0  0  0  0  0  0  0
    2.3713    3.8837    7.5939 C   0  0  0  0  0  0  0  0  0  0  0  0
    2.0770    5.0024    6.9229 C   0  0  0  0  0  0  0  0  0  0  0  0
    1.9351    4.9541    5.4228 C   0  0  0  0  0  0  0  0  0  0  0  0
    1.9165    6.3686    7.5224 C   0  0  3  0  0  0  0  0  0  0  0  0
    0.5657    6.7862    7.3850 O   0  0  0  0  0  0  0  0  0  0  0  0
    0.3069    8.0817    7.7013 C   0  0  0  0  0  0  0  0  0  0  0  0
   -0.6960    8.6595    7.3086 O   0  0  0  0  0  0  0  0  0  0  0  0
    1.2571    8.7087    8.4457 O   0  0  0  0  0  0  0  0  0  0  0  0
    2.1676    7.9924    9.3039 C   0  0  0  0  0  0  0  0  0  0  0  0
    2.2712    6.5434    8.9536 C   0  0  0  0  0  0  0  0  0  0  0  0
    2.6143    5.5872    9.8363 C   0  0  0  0  0  0  0  0  0  0  0  0
    2.4785    3.8772    9.3515 S   0  3  0  0  0  0  0  0  0  0  0  0
    3.0304    5.8031   11.2407 C   0  0  0  0  0  0  0  0  0  0  0  0
    3.9745    4.9427   11.9070 O   0  0  0  0  0  0  0  0  0  0  0  0
    4.3424    6.2916   11.5677 O   0  0  0  0  0  0  0  0  0  0  0  0
    2.6876    1.1137    5.2311 C   0  0  0  0  0  0  0  0  0  0  0  0
    1.5898    0.3272    5.2151 N   0  0  0  0  0  0  0  0  0  0  0  0
    1.8101   -0.9880    5.0861 C   0  0  0  0  0  0  0  0  0  0  0  0
    2.9986   -1.5774    4.9042 N   0  0  0  0  0  0  0  0  0  0  0  0
    4.0778   -0.7929    4.9344 C   0  0  0  0  0  0  0  0  0  0  0  0
    3.9886    0.6011    5.0900 C   0  0  0  0  0  0  0  0  0  0  0  0
    5.1704    1.3668    5.1406 C   0  0  0  0  0  0  0  0  0  0  0  0
    6.4110    0.7365    5.0794 C   0  0  0  0  0  0  0  0  0  0  0  0
    6.5117   -0.6435    4.9900 C   0  0  0  0  0  0  0  0  0  0  0  0
    5.3368   -1.3915    4.8952 C   0  0  0  0  0  0  0  0  0  0  0  0
    7.6829   -1.3453    5.0318 O   0  0  0  0  0  0  0  0  0  0  0  0
    8.9140   -0.6087    4.9734 C   0  0  2  0  0  0  0  0  0  0  0  0
    8.8659    0.7913    5.5340 C   0  0  0  0  0  0  0  0  0  0  0  0
    9.7726    1.3408    6.1407 O   0  0  0  0  0  0  0  0  0  0  0  0
    7.6240    1.5401    5.1502 C   0  0  0  0  0  0  0  0  0  0  0  0
    7.6566    2.7243    4.8643 O   0  0  0  0  0  0  0  0  0  0  0  0
    9.4457   -0.6249    3.5704 C   0  0  1  0  0  0  0  0  0  0  0  0
    9.7367   -1.9298    3.0193 O   0  0  0  0  0  0  0  0  0  0  0  0
    8.7902    0.2782    2.6793 O   0  0  0  0  0  0  0  0  0  0  0  0
   10.0897    0.5067    2.9142 C   0  0  0  0  0  0  0  0  0  0  0  0
   11.0141    0.5408    2.1116 O   0  0  0  0  0  0  0  0  0  0  0  0
    0.0207    2.1536    3.0327 C   0  0  0  0  0  0  0  0  0  0  0  0
   -0.8502    2.8850    3.4810 O   0  0  0  0  0  0  0  0  0  0  0  0
   -0.2812    0.7349    2.6287 C   0  0  0  0  0  0  0  0  0  0  0  0
   -1.1576    0.0819    3.1705 O   0  0  0  0  0  0  0  0  0  0  0  0
    0.5813    0.1138    1.5594 C   0  0  0  0  0  0  0  0  0  0  0  0
    0.1280   -0.6227    0.7012 O   0  0  0  0  0  0  0  0  0  0  0  0
  1  2  1  0  0  0  0
  2  3  2  0  0  0  0
  3  4  1  0  0  0  0
  3 50  1  0  0  0  0
  4  5  1  0  0  0  0
  5  6  1  1  0  0  0
  5 46  1  0  0  0  0
  6  7  1  0  0  0  0
  7  8  2  0  0  0  0
  7 12  1  0  0  0  0
  8  9  1  0  0  0  0
  8 25  1  0  0  0  0
  9 10  1  0  0  0  0
 10 11  2  0  0  0  0
 10 21  1  0  0  0  0
 11 12  1  0  0  0  0
 11 13  1  0  0  0  0
 13 14  1  0  0  0  0
 13 19  1  0  0  0  0
 14 15  1  0  0  0  0
 15 16  2  0  0  0  0
 15 17  1  0  0  0  0
 17 18  1  0  0  0  0
 18 19  1  0  0  0  0
 19 20  2  0  0  0  0
 20 21  1  0  0  0  0
 20 22  1  0  0  0  0
 22 23  1  0  0  0  0
 22 24  1  0  0  0  0
 23 24  1  0  0  0  0
 25 26  2  0  0  0  0
 25 30  1  0  0  0  0
 26 27  1  0  0  0  0
 27 28  2  0  0  0  0
 28 29  1  0  0  0  0
 29 30  2  0  0  0  0
 29 34  1  0  0  0  0
 30 31  1  0  0  0  0
 31 32  2  0  0  0  0
 32 33  1  0  0  0  0
 32 39  1  0  0  0  0
 33 34  2  0  0  0  0
 33 35  1  0  0  0  0
 36 35  1  6  0  0  0
 36 37  1  0  0  0  0
 36 41  1  0  0  0  0
 37 38  2  0  0  0  0
 37 39  1  0  0  0  0
 39 40  2  0  0  0  0
 41 42  1  6  0  0  0
 41 43  1  0  0  0  0
 41 44  1  0  0  0  0
 43 44  1  0  0  0  0
 44 45  2  0  0  0  0
 46 47  2  0  0  0  0
 46 48  1  0  0  0  0
 48 49  2  0  0  0  0
 48 50  1  0  0  0  0
 50 51  2  0  0  0  0
M  CHG  1  21   1
M  END
$$$$