
 OpenBabel11142001443D

 52 60  0  0  1  0  0  0  0  0999 V2000
    2.3562    4.1302   -3.8948 O   0  0  0  0  0  0  0  0  0  0  0  0
    2.8156    3.5794   -2.7248 C   0  0  0  0  0  0  0  0  0  0  0  0
    2.6530    2.2875   -2.4121 C   0  0  0  0  0  0  0  0  0  0  0  0
    1.9605    1.4293   -3.2414 O   0  0  0  0  0  0  0  0  0  0  0  0
    2.5091    0.1060   -3.3115 C   0  0  2  0  0  0  0  0  0  0  0  0
    1.9035   -0.6688   -4.3558 O   0  0  0  0  0  0  0  0  0  0  0  0
    2.1540   -0.2516   -5.6625 C   0  0  0  0  0  0  0  0  0  0  0  0
    2.1455   -1.1179   -6.6991 C   0  0  0  0  0  0  0  0  0  0  0  0
    2.3153   -0.7269   -8.0279 O   0  0  0  0  0  0  0  0  0  0  0  0
    2.4451    0.6233   -8.3228 C   0  0  0  0  0  0  0  0  0  0  0  0
    2.4929    1.5587   -7.3629 C   0  0  0  0  0  0  0  0  0  0  0  0
    2.3877    1.2129   -5.9223 C   0  0  0  0  0  0  0  0  0  0  0  0
    2.6273    3.0205   -7.6963 C   0  0  3  0  0  0  0  0  0  0  0  0
    3.7825    3.5085   -7.0139 O   0  0  0  0  0  0  0  0  0  0  0  0
    4.3609    4.6859   -7.3448 C   0  0  0  0  0  0  0  0  0  0  0  0
    5.2108    5.1968   -6.6261 O   0  0  0  0  0  0  0  0  0  0  0  0
    3.9926    5.2609   -8.5146 O   0  0  0  0  0  0  0  0  0  0  0  0
    2.9876    4.7347   -9.3688 C   0  0  3  0  0  0  0  0  0  0  0  0
    2.7749    3.2916   -9.1488 C   0  0  0  0  0  0  0  0  0  0  0  0
    2.7185    2.3042  -10.0716 C   0  0  0  0  0  0  0  0  0  0  0  0
    2.5253    0.9970   -9.6415 N   0  0  0  0  0  0  0  0  0  0  0  0
    2.8457    2.5129  -11.5313 C   0  0  0  0  0  0  0  0  0  0  0  0
    4.1241    2.4858  -12.1844 O   0  0  0  0  0  0  0  0  0  0  0  0
    3.1637    1.4409  -12.4353 O   0  0  0  0  0  0  0  0  0  0  0  0
    1.7665    5.4055   -9.1055 O   0  0  0  0  0  0  0  0  0  0  0  0
    1.9960   -2.5711   -6.5155 C   0  0  0  0  0  0  0  0  0  0  0  0
    3.1690   -3.2274   -6.3717 N   0  0  0  0  0  0  0  0  0  0  0  0
    3.0801   -4.5443   -6.1725 C   0  0  0  0  0  0  0  0  0  0  0  0
    1.9485   -5.2562   -6.0934 N   0  0  0  0  0  0  0  0  0  0  0  0
    0.7988   -4.5916   -6.2412 C   0  0  0  0  0  0  0  0  0  0  0  0
    0.7465   -3.2101   -6.4806 C   0  0  0  0  0  0  0  0  0  0  0  0
   -0.5087   -2.5843   -6.6778 C   0  0  0  0  0  0  0  0  0  0  0  0
   -1.6843   -3.3366   -6.6248 C   0  0  0  0  0  0  0  0  0  0  0  0
   -1.6379   -4.6936   -6.3313 C   0  0  0  0  0  0  0  0  0  0  0  0
   -0.3937   -5.3046   -6.1575 C   0  0  0  0  0  0  0  0  0  0  0  0
   -2.7293   -5.5103   -6.2080 O   0  0  0  0  0  0  0  0  0  0  0  0
   -4.0201   -4.8864   -6.1988 C   0  0  2  0  0  0  0  0  0  0  0  0
   -4.1330   -3.6666   -7.0791 C   0  0  0  0  0  0  0  0  0  0  0  0
   -5.0535   -3.4422   -7.8513 O   0  0  0  0  0  0  0  0  0  0  0  0
   -2.9745   -2.7120   -6.9364 C   0  0  0  0  0  0  0  0  0  0  0  0
   -3.1063   -1.5133   -7.1165 O   0  0  0  0  0  0  0  0  0  0  0  0
   -4.4511   -4.5681   -4.8022 C   0  0  1  0  0  0  0  0  0  0  0  0
   -3.6086   -3.6563   -4.0581 O   0  0  0  0  0  0  0  0  0  0  0  0
   -5.8588   -4.3486   -4.6689 O   0  0  0  0  0  0  0  0  0  0  0  0
   -5.3479   -5.4027   -4.0040 C   0  0  0  0  0  0  0  0  0  0  0  0
   -5.3549   -5.6389   -2.8180 O   0  0  0  0  0  0  0  0  0  0  0  0
    2.2618   -0.5144   -1.9464 C   0  0  0  0  0  0  0  0  0  0  0  0
    1.7027   -1.5759   -1.7154 O   0  0  0  0  0  0  0  0  0  0  0  0
    2.7998    0.3491   -0.8236 C   0  0  0  0  0  0  0  0  0  0  0  0
    2.9397   -0.1090    0.2994 O   0  0  0  0  0  0  0  0  0  0  0  0
    3.1785    1.7913   -1.1135 C   0  0  0  0  0  0  0  0  0  0  0  0
    3.8690    2.4501   -0.3552 O   0  0  0  0  0  0  0  0  0  0  0  0
  1  2  1  0  0  0  0
  2  3  2  0  0  0  0
  3  4  1  0  0  0  0
  3 51  1  0  0  0  0
  4  5  1  0  0  0  0
  5  6  1  6  0  0  0
  5 47  1  0  0  0  0
  6  7  1  0  0  0  0
  7  8  2  0  0  0  0
  7 12  1  0  0  0  0
  8  9  1  0  0  0  0
  8 26  1  0  0  0  0
  9 10  1  0  0  0  0
 10 11  2  0  0  0  0
 10 21  1  0  0  0  0
 11 12  1  0  0  0  0
 11 13  1  0  0  0  0
 13 14  1  0  0  0  0
 13 19  1  0  0  0  0
 14 15  1  0  0  0  0
 15 16  2  0  0  0  0
 15 17  1  0  0  0  0
 17 18  1  0  0  0  0
 18 19  1  0  0  0  0
 18 25  1  0  0  0  0
 19 20  2  0  0  0  0
 20 21  1  0  0  0  0
 20 22  1  0  0  0  0
 22 23  1  0  0  0  0
 22 24  1  0  0  0  0
 23 24  1  0  0  0  0
 26 27  2  0  0  0  0
 26 31  1  0  0  0  0
 27 28  1  0  0  0  0
 28 29  2  0  0  0  0
 29 30  1  0  0  0  0
 30 31  2  0  0  0  0
 30 35  1  0  0  0  0
 31 32  1  0  0  0  0
 32 33  2  0  0  0  0
 33 34  1  0  0  0  0
 33 40  1  0  0  0  0
 34 35  2  0  0  0  0
 34 36  1  0  0  0  0
 37 36  1  1  0  0  0
 37 38  1  0  0  0  0
 37 42  1  0  0  0  0
 38 39  2  0  0  0  0
 38 40  1  0  0  0  0
 40 41  2  0  0  0  0
 42 43  1  1  0  0  0
 42 44  1  0  0  0  0
 42 45  1  0  0  0  0
 44 45  1  0  0  0  0
 45 46  2  0  0  0  0
 47 48  2  0  0  0  0
 47 49  1  0  0  0  0
 49 50  2  0  0  0  0
 49 51  1  0  0  0  0
 51 52  2  0  0  0  0
M  END
$$$$