
 OpenBabel10292023283D

 52 61  0  0  1  0  0  0  0  0999 V2000
    5.2146   -1.8932    0.0399 O   0  0  0  0  0  0  0  0  0  0  0  0
    5.3216   -0.6886   -0.6011 C   0  0  0  0  0  0  0  0  0  0  0  0
    4.6684   -0.3632   -1.7295 C   0  0  0  0  0  0  0  0  0  0  0  0
    3.8407   -1.1784   -2.4988 O   0  3  0  0  0  0  0  0  0  0  0  0
    3.8015   -2.5888   -2.3381 C   0  0  0  0  0  0  0  0  0  0  0  0
    2.4882   -3.0046   -1.6326 C   0  0  3  0  0  0  0  0  0  0  0  0
    2.2948   -4.4640   -1.2933 C   0  0  0  0  0  0  0  0  0  0  0  0
    1.0607   -5.0055   -1.3564 C   0  0  0  0  0  0  0  0  0  0  0  0
    0.8439   -6.3086   -0.9975 N   0  0  0  0  0  0  0  0  0  0  0  0
    1.8392   -7.2150   -0.6817 C   0  0  0  0  0  0  0  0  0  0  0  0
    3.1018   -6.7560   -0.5636 C   0  0  0  0  0  0  0  0  0  0  0  0
    3.4254   -5.3104   -0.7451 C   0  0  3  0  0  0  0  0  0  0  0  0
    4.5105   -5.2713   -1.6597 O   0  0  0  0  0  0  0  0  0  0  0  0
    5.6632   -5.7829   -1.1455 C   0  0  0  0  0  0  0  0  0  0  0  0
    6.7488   -5.3064   -1.4380 O   0  0  0  0  0  0  0  0  0  0  0  0
    5.4911   -6.7778   -0.2373 O   0  0  0  0  0  0  0  0  0  0  0  0
    4.3077   -7.5918   -0.3200 C   0  0  0  0  0  0  0  0  0  0  0  0
    1.4324   -8.6303   -0.5293 C   0  0  0  0  0  0  0  0  0  0  0  0
    1.2437   -9.2324    0.7599 O   0  0  0  0  0  0  0  0  0  0  0  0
    0.1094   -8.9858   -0.0944 O   0  0  0  0  0  0  0  0  0  0  0  0
   -0.0502   -4.2857   -1.7607 O   0  0  0  0  0  0  0  0  0  0  0  0
    0.1321   -3.1048   -2.4772 C   0  0  0  0  0  0  0  0  0  0  0  0
    1.3395   -2.4974   -2.4984 C   0  0  0  0  0  0  0  0  0  0  0  0
    1.6360   -1.4733   -3.3847 O   0  0  0  0  0  0  0  0  0  0  0  0
    2.6292   -0.5750   -2.9048 C   0  0  2  0  0  0  0  0  0  0  0  0
    3.0038    0.4686   -3.9408 C   0  0  0  0  0  0  0  0  0  0  0  0
    2.5058    0.5604   -5.0500 O   0  0  0  0  0  0  0  0  0  0  0  0
    4.1360    1.3748   -3.4952 C   0  0  0  0  0  0  0  0  0  0  0  0
    4.5883    2.2291   -4.2313 O   0  0  0  0  0  0  0  0  0  0  0  0
    4.7978    1.0697   -2.1610 C   0  0  0  0  0  0  0  0  0  0  0  0
    5.3456    1.9295   -1.4983 O   0  0  0  0  0  0  0  0  0  0  0  0
   -1.0891   -2.6826   -3.2251 C   0  0  0  0  0  0  0  0  0  0  0  0
   -1.7667   -3.7047   -3.7870 N   0  0  0  0  0  0  0  0  0  0  0  0
   -2.8508   -3.3808   -4.5018 C   0  0  0  0  0  0  0  0  0  0  0  0
   -3.3019   -2.1403   -4.7334 N   0  0  0  0  0  0  0  0  0  0  0  0
   -2.6338   -1.1295   -4.1730 C   0  0  0  0  0  0  0  0  0  0  0  0
   -1.5154   -1.3464   -3.3545 C   0  0  0  0  0  0  0  0  0  0  0  0
   -0.8943   -0.2355   -2.7535 C   0  0  0  0  0  0  0  0  0  0  0  0
   -1.2480    1.0582   -3.1097 C   0  0  0  0  0  0  0  0  0  0  0  0
   -2.3640    1.2871   -3.8893 C   0  0  0  0  0  0  0  0  0  0  0  0
   -3.0523    0.1848   -4.4073 C   0  0  0  0  0  0  0  0  0  0  0  0
   -2.8500    2.5331   -4.1677 O   0  0  0  0  0  0  0  0  0  0  0  0
   -2.3405    3.6265   -3.3786 C   0  0  2  0  0  0  0  0  0  0  0  0
   -0.8563    3.5461   -3.0771 C   0  0  0  0  0  0  0  0  0  0  0  0
   -0.0788    4.4888   -3.0575 O   0  0  0  0  0  0  0  0  0  0  0  0
   -0.3631    2.1614   -2.7414 C   0  0  0  0  0  0  0  0  0  0  0  0
    0.7546    1.9456   -2.2829 O   0  0  0  0  0  0  0  0  0  0  0  0
   -3.1318    3.8834   -2.1187 C   0  0  1  0  0  0  0  0  0  0  0  0
   -2.8030    5.0843   -1.3947 O   0  0  0  0  0  0  0  0  0  0  0  0
   -4.5331    3.5647   -2.1746 O   0  0  0  0  0  0  0  0  0  0  0  0
   -3.7755    2.8394   -1.3381 C   0  0  0  0  0  0  0  0  0  0  0  0
   -3.5565    1.6560   -1.2281 O   0  0  0  0  0  0  0  0  0  0  0  0
  1  2  1  0  0  0  0
  2  3  2  0  0  0  0
  3  4  1  0  0  0  0
  3 30  1  0  0  0  0
  4  5  1  0  0  0  0
  4 25  1  0  0  0  0
  5  6  1  0  0  0  0
  6  7  1  0  0  0  0
  6 23  1  0  0  0  0
  7  8  2  0  0  0  0
  7 12  1  0  0  0  0
  8  9  1  0  0  0  0
  8 21  1  0  0  0  0
  9 10  1  0  0  0  0
 10 11  2  0  0  0  0
 10 18  1  0  0  0  0
 11 12  1  0  0  0  0
 11 17  1  0  0  0  0
 12 13  1  0  0  0  0
 13 14  1  0  0  0  0
 14 15  2  0  0  0  0
 14 16  1  0  0  0  0
 16 17  1  0  0  0  0
 18 19  1  0  0  0  0
 18 20  1  0  0  0  0
 19 20  1  0  0  0  0
 21 22  1  0  0  0  0
 22 23  2  0  0  0  0
 22 32  1  0  0  0  0
 23 24  1  0  0  0  0
 25 24  1  6  0  0  0
 25 26  1  0  0  0  0
 26 27  2  0  0  0  0
 26 28  1  0  0  0  0
 28 29  2  0  0  0  0
 28 30  1  0  0  0  0
 30 31  2  0  0  0  0
 32 33  2  0  0  0  0
 32 37  1  0  0  0  0
 33 34  1  0  0  0  0
 34 35  2  0  0  0  0
 35 36  1  0  0  0  0
 36 37  2  0  0  0  0
 36 41  1  0  0  0  0
 37 38  1  0  0  0  0
 38 39  2  0  0  0  0
 39 40  1  0  0  0  0
 39 46  1  0  0  0  0
 40 41  2  0  0  0  0
 40 42  1  0  0  0  0
 43 42  1  1  0  0  0
 43 44  1  0  0  0  0
 43 48  1  0  0  0  0
 44 45  2  0  0  0  0
 44 46  1  0  0  0  0
 46 47  2  0  0  0  0
 48 49  1  1  0  0  0
 48 50  1  0  0  0  0
 48 51  1  0  0  0  0
 50 51  1  0  0  0  0
 51 52  2  0  0  0  0
M  CHG  1   4   1
M  END
$$$$