
 OpenBabel09212009173D

 48 55  0  0  1  0  0  0  0  0999 V2000
    8.2593   -3.5556   -1.3709 O   0  0  0  0  0  0  0  0  0  0  0  0
    7.6919   -3.8776   -0.0929 C   0  0  0  0  0  0  0  0  0  0  0  0
    6.8232   -2.7133    0.3898 C   0  0  2  0  0  0  0  0  0  0  0  0
    7.6560   -1.5696    0.5977 O   0  0  0  0  0  0  0  0  0  0  0  0
    6.9170   -0.3596    0.6765 C   0  0  2  0  0  0  0  0  0  0  0  0
    7.7474    0.8010    0.7768 O   0  0  0  0  0  0  0  0  0  0  0  0
    8.6574    1.0772   -0.2365 C   0  0  0  0  0  0  0  0  0  0  0  0
    9.0977    2.3347   -0.4785 C   0  0  0  0  0  0  0  0  0  0  0  0
   10.1332    2.5974   -1.3730 O   0  0  0  0  0  0  0  0  0  0  0  0
   10.6449    1.6000   -2.1638 C   0  0  0  0  0  0  0  0  0  0  0  0
   10.2275    0.2890   -2.0559 C   0  0  0  0  0  0  0  0  0  0  0  0
    9.2083   -0.0784   -1.0323 C   0  0  0  0  0  0  0  0  0  0  0  0
   10.8159   -0.6474   -2.9119 C   0  0  0  0  0  0  0  0  0  0  0  0
   10.4522   -2.0025   -2.8588 N   0  0  0  0  0  0  0  0  0  0  0  0
   11.0735   -2.9968   -3.5493 C   0  0  0  0  0  0  0  0  0  0  0  0
   10.7505   -4.1719   -3.4137 O   0  0  0  0  0  0  0  0  0  0  0  0
   12.0922   -2.6303   -4.3687 N   0  0  0  0  0  0  0  0  0  0  0  0
   12.3691   -1.2701   -4.7543 C   0  0  0  0  0  0  0  0  0  0  0  0
   11.7841   -0.2525   -3.8348 C   0  0  0  0  0  0  0  0  0  0  0  0
   12.1066    1.0967   -3.8678 C   0  0  0  0  0  0  0  0  0  0  0  0
   11.5682    2.0172   -3.0512 N   0  0  0  0  0  0  0  0  0  0  0  0
   13.0124    1.6246   -4.7373 O   0  0  0  0  0  0  0  0  0  0  0  0
    8.6011    3.5777    0.1973 C   0  0  0  0  0  0  0  0  0  0  0  0
    8.2164    3.4222    1.4929 N   0  0  0  0  0  0  0  0  0  0  0  0
    7.8389    4.5161    2.1833 C   0  0  0  0  0  0  0  0  0  0  0  0
    7.8567    5.7960    1.6668 C   0  0  0  0  0  0  0  0  0  0  0  0
    8.2216    5.9762    0.3340 C   0  0  0  0  0  0  0  0  0  0  0  0
    8.5577    4.8488   -0.4558 C   0  0  0  0  0  0  0  0  0  0  0  0
    8.7758    5.0859   -1.8421 C   0  0  0  0  0  0  0  0  0  0  0  0
    8.7017    6.3722   -2.3772 C   0  0  0  0  0  0  0  0  0  0  0  0
    8.4981    7.4692   -1.5620 C   0  0  0  0  0  0  0  0  0  0  0  0
    8.2316    7.2738   -0.2135 C   0  0  0  0  0  0  0  0  0  0  0  0
    8.5302    8.7761   -1.9955 O   0  0  0  0  0  0  0  0  0  0  0  0
    9.2651    8.9880   -3.2158 C   0  0  2  0  0  0  0  0  0  0  0  0
    8.8443    8.0272   -4.3167 C   0  0  0  0  0  0  0  0  0  0  0  0
    8.5502    8.3355   -5.4623 O   0  0  0  0  0  0  0  0  0  0  0  0
    8.8217    6.5862   -3.8246 C   0  0  0  0  0  0  0  0  0  0  0  0
    8.8308    5.6700   -4.6218 O   0  0  0  0  0  0  0  0  0  0  0  0
   10.7524    8.9599   -2.9721 C   0  0  1  0  0  0  0  0  0  0  0  0
   11.3134    7.7400   -2.4684 O   0  0  0  0  0  0  0  0  0  0  0  0
   11.5503    9.6237   -3.9529 O   0  0  0  0  0  0  0  0  0  0  0  0
   11.5082   10.2198   -2.6469 C   0  0  0  0  0  0  0  0  0  0  0  0
    6.0315   -0.3895    1.9200 C   0  0  0  0  0  0  0  0  0  0  0  0
    5.4701    0.6654    2.4348 N   0  0  0  0  0  0  0  0  0  0  0  0
    5.7711   -1.7755    2.4910 C   0  0  0  0  0  0  0  0  0  0  0  0
    5.2258   -1.9004    3.5780 O   0  0  0  0  0  0  0  0  0  0  0  0
    6.1801   -3.0201    1.7173 C   0  0  0  0  0  0  0  0  0  0  0  0
    5.9511   -4.1446    2.1362 O   0  0  0  0  0  0  0  0  0  0  0  0
  1  2  1  0  0  0  0
  3  4  1  0  0  0  0
  3 47  1  0  0  0  0
  3  2  1  1  0  0  0
  4  5  1  0  0  0  0
  5  6  1  1  0  0  0
  5 43  1  0  0  0  0
  6  7  1  0  0  0  0
  7  8  2  0  0  0  0
  7 12  1  0  0  0  0
  8  9  1  0  0  0  0
  8 23  1  0  0  0  0
  9 10  1  0  0  0  0
 10 11  2  0  0  0  0
 10 21  1  0  0  0  0
 11 12  1  0  0  0  0
 11 13  1  0  0  0  0
 13 14  1  0  0  0  0
 13 19  2  0  0  0  0
 14 15  1  0  0  0  0
 15 16  2  0  0  0  0
 15 17  1  0  0  0  0
 17 18  1  0  0  0  0
 18 19  1  0  0  0  0
 19 20  1  0  0  0  0
 20 21  2  0  0  0  0
 20 22  1  0  0  0  0
 23 24  2  0  0  0  0
 23 28  1  0  0  0  0
 24 25  1  0  0  0  0
 25 26  2  0  0  0  0
 26 27  1  0  0  0  0
 27 28  2  0  0  0  0
 27 32  1  0  0  0  0
 28 29  1  0  0  0  0
 29 30  2  0  0  0  0
 30 31  1  0  0  0  0
 30 37  1  0  0  0  0
 31 32  2  0  0  0  0
 31 33  1  0  0  0  0
 34 33  1  1  0  0  0
 34 35  1  0  0  0  0
 34 39  1  0  0  0  0
 35 36  2  0  0  0  0
 35 37  1  0  0  0  0
 37 38  2  0  0  0  0
 39 40  1  1  0  0  0
 39 41  1  0  0  0  0
 39 42  1  0  0  0  0
 41 42  1  0  0  0  0
 43 44  2  0  0  0  0
 43 45  1  0  0  0  0
 45 46  2  0  0  0  0
 45 47  1  0  0  0  0
 47 48  2  0  0  0  0
M  END
$$$$