
 OpenBabel11222014413D

 54 63  0  0  1  0  0  0  0  0999 V2000
    0.9319    4.5674    1.2987 O   0  0  0  0  0  0  0  0  0  0  0  0
    2.2129    4.9791    1.5542 C   0  0  0  0  0  0  0  0  0  0  0  0
    2.9479    4.4585    2.5418 C   0  0  0  0  0  0  0  0  0  0  0  0
    2.4282    3.5000    3.4002 O   0  0  0  0  0  0  0  0  0  0  0  0
    3.2634    2.3473    3.4617 C   0  0  2  0  0  0  0  0  0  0  0  0
    2.5351    1.2761    4.0920 O   0  0  0  0  0  0  0  0  0  0  0  0
    2.5966    1.1225    5.4652 C   0  0  0  0  0  0  0  0  0  0  0  0
    2.6243   -0.1145    5.9981 C   0  0  0  0  0  0  0  0  0  0  0  0
    2.7595   -0.3556    7.3608 O   0  0  0  0  0  0  0  0  0  0  0  0
    3.0419    0.7137    8.2086 C   0  0  0  0  0  0  0  0  0  0  0  0
    2.9331    1.9898    7.7890 C   0  0  0  0  0  0  0  0  0  0  0  0
    2.5473    2.3317    6.3725 C   0  0  0  0  0  0  0  0  0  0  0  0
    3.2345    3.1506    8.7010 C   0  0  3  0  0  0  0  0  0  0  0  0
    2.0286    3.8678    8.8877 O   0  0  0  0  0  0  0  0  0  0  0  0
    2.0607    4.9294    9.7417 C   0  0  0  0  0  0  0  0  0  0  0  0
    1.1542    5.7439    9.7789 O   0  0  0  0  0  0  0  0  0  0  0  0
    3.1637    5.0222   10.5239 O   0  0  0  0  0  0  0  0  0  0  0  0
    3.9030    3.8757   10.9218 C   0  0  3  0  0  0  0  0  0  0  0  0
    3.6544    2.7006   10.0479 C   0  0  0  0  0  0  0  0  0  0  0  0
    3.7524    1.4004   10.3986 C   0  0  0  0  0  0  0  0  0  0  0  0
    3.4287    0.4090    9.4909 O   0  3  0  0  0  0  0  0  0  0  0  0
    4.1706    0.9280   11.7382 C   0  0  0  0  0  0  0  0  0  0  0  0
    3.1991    0.5965   12.7344 O   0  0  0  0  0  0  0  0  0  0  0  0
    3.9711   -0.4465   12.1125 O   0  0  0  0  0  0  0  0  0  0  0  0
    5.2816    4.1461   10.7799 O   0  0  0  0  0  0  0  0  0  0  0  0
    2.3593   -1.3168    5.1869 C   0  0  0  0  0  0  0  0  0  0  0  0
    1.0229   -1.6578    5.0069 C   0  0  0  0  0  0  0  0  0  0  0  0
    0.6810   -2.7418    4.3071 N   0  3  0  0  0  0  0  0  0  0  0  0
   -0.6229   -3.0500    4.1757 F   0  0  0  0  0  0  0  0  0  0  0  0
    1.5733   -3.5360    3.7517 N   0  0  0  0  0  0  0  0  0  0  0  0
    2.8729   -3.2309    3.8374 C   0  0  0  0  0  0  0  0  0  0  0  0
    3.3316   -2.1105    4.5568 C   0  0  0  0  0  0  0  0  0  0  0  0
    4.7184   -1.8328    4.5820 C   0  0  0  0  0  0  0  0  0  0  0  0
    5.6521   -2.6166    3.8815 C   0  0  0  0  0  0  0  0  0  0  0  0
    7.1667   -2.2900    3.8232 C   0  0  3  0  0  0  0  0  0  0  0  0
    7.5028   -1.0556    3.1386 O   0  0  0  0  0  0  0  0  0  0  0  0
    8.4964   -1.7713    2.3175 O   0  0  0  0  0  0  0  0  0  0  0  0
    7.9576   -3.0437    2.7611 C   0  0  3  0  0  0  0  0  0  0  0  0
    7.0746   -3.7220    1.7091 C   0  0  1  0  0  0  0  0  0  0  0  0
    5.9764   -4.4456    2.3391 O   0  0  0  0  0  0  0  0  0  0  0  0
    5.1566   -3.7043    3.1554 C   0  0  0  0  0  0  0  0  0  0  0  0
    3.8001   -4.0244    3.1747 C   0  0  0  0  0  0  0  0  0  0  0  0
    3.3661   -5.0842    2.4734 F   0  0  0  0  0  0  0  0  0  0  0  0
    6.6485   -2.8189    0.5641 C   0  0  1  0  0  0  0  0  0  0  0  0
    7.7310   -2.3235   -0.2580 O   0  0  0  0  0  0  0  0  0  0  0  0
    5.5075   -3.3019   -0.1873 O   0  0  0  0  0  0  0  0  0  0  0  0
    5.3879   -2.1241    0.4212 C   0  0  0  0  0  0  0  0  0  0  0  0
    4.5523   -1.6681    1.1844 O   0  0  0  0  0  0  0  0  0  0  0  0
    4.6560    2.6755    4.0295 C   0  0  0  0  0  0  0  0  0  0  0  0
    5.3455    1.9035    4.6847 O   0  0  0  0  0  0  0  0  0  0  0  0
    5.0655    4.1147    3.8009 C   0  0  0  0  0  0  0  0  0  0  0  0
    5.8632    4.6442    4.5563 O   0  0  0  0  0  0  0  0  0  0  0  0
    4.3547    4.9068    2.7212 C   0  0  0  0  0  0  0  0  0  0  0  0
    4.9124    5.7622    2.0647 O   0  0  0  0  0  0  0  0  0  0  0  0
  1  2  1  0  0  0  0
  2  3  2  0  0  0  0
  3  4  1  0  0  0  0
  3 53  1  0  0  0  0
  4  5  1  0  0  0  0
  5  6  1  1  0  0  0
  5 49  1  0  0  0  0
  6  7  1  0  0  0  0
  7  8  2  0  0  0  0
  7 12  1  0  0  0  0
  8  9  1  0  0  0  0
  8 26  1  0  0  0  0
  9 10  1  0  0  0  0
 10 11  2  0  0  0  0
 10 21  1  0  0  0  0
 11 12  1  0  0  0  0
 11 13  1  0  0  0  0
 13 14  1  0  0  0  0
 13 19  1  0  0  0  0
 14 15  1  0  0  0  0
 15 16  2  0  0  0  0
 15 17  1  0  0  0  0
 17 18  1  0  0  0  0
 18 19  1  0  0  0  0
 18 25  1  0  0  0  0
 19 20  2  0  0  0  0
 20 21  1  0  0  0  0
 20 22  1  0  0  0  0
 22 23  1  0  0  0  0
 22 24  1  0  0  0  0
 23 24  1  0  0  0  0
 26 27  2  0  0  0  0
 26 32  1  0  0  0  0
 27 28  1  0  0  0  0
 28 29  1  0  0  0  0
 28 30  2  0  0  0  0
 30 31  1  0  0  0  0
 31 32  2  0  0  0  0
 31 42  1  0  0  0  0
 32 33  1  0  0  0  0
 33 34  2  0  0  0  0
 34 35  1  0  0  0  0
 34 41  1  0  0  0  0
 35 36  1  0  0  0  0
 35 38  1  0  0  0  0
 36 37  1  0  0  0  0
 37 38  1  0  0  0  0
 38 39  1  0  0  0  0
 39 40  1  1  0  0  0
 39 44  1  0  0  0  0
 40 41  1  0  0  0  0
 41 42  2  0  0  0  0
 42 43  1  0  0  0  0
 44 45  1  6  0  0  0
 44 46  1  0  0  0  0
 44 47  1  0  0  0  0
 46 47  1  0  0  0  0
 47 48  2  0  0  0  0
 49 50  2  0  0  0  0
 49 51  1  0  0  0  0
 51 52  2  0  0  0  0
 51 53  1  0  0  0  0
 53 54  2  0  0  0  0
M  CHG  2  21   1  28   1
M  END
$$$$