
 OpenBabel11262001583D

 54 62  0  0  1  0  0  0  0  0999 V2000
    5.2598    7.4869    1.7610 O   0  0  0  0  0  0  0  0  0  0  0  0
    5.5431    6.3664    1.0188 C   0  0  0  0  0  0  0  0  0  0  0  0
    5.2115    5.1281    1.4045 C   0  0  0  0  0  0  0  0  0  0  0  0
    4.5756    4.9062    2.6202 O   0  0  0  0  0  0  0  0  0  0  0  0
    3.7547    3.7322    2.6324 C   0  0  2  0  0  0  0  0  0  0  0  0
    3.3350    3.4546    4.0024 O   0  0  0  0  0  0  0  0  0  0  0  0
    2.6379    4.4607    4.6606 C   0  0  0  0  0  0  0  0  0  0  0  0
    2.7438    4.5838    5.9981 C   0  0  0  0  0  0  0  0  0  0  0  0
    2.0941    5.5934    6.7248 O   0  0  0  0  0  0  0  0  0  0  0  0
    1.2929    6.5375    6.0445 C   0  0  0  0  0  0  0  0  0  0  0  0
    1.0777    6.4289    4.7155 C   0  0  0  0  0  0  0  0  0  0  0  0
    1.7055    5.3517    3.8729 C   0  0  0  0  0  0  0  0  0  0  0  0
    0.2214    7.4201    3.9563 C   0  0  3  0  0  0  0  0  0  0  0  0
   -0.8903    6.7374    3.4266 O   0  0  0  0  0  0  0  0  0  0  0  0
   -1.8255    7.4993    2.7793 C   0  0  0  0  0  0  0  0  0  0  0  0
   -2.6294    6.9751    2.0274 O   0  0  0  0  0  0  0  0  0  0  0  0
   -1.8103    8.8377    3.0240 O   0  0  0  0  0  0  0  0  0  0  0  0
   -1.1816    9.3594    4.0906 C   0  0  0  0  0  0  0  0  0  0  0  0
   -1.2645   10.5292    4.4287 O   0  0  0  0  0  0  0  0  0  0  0  0
   -0.3271    8.4479    4.8437 C   0  0  0  0  0  0  0  0  0  0  0  0
   -0.0735    8.5359    6.1644 C   0  0  0  0  0  0  0  0  0  0  0  0
    0.7328    7.5777    6.7732 O   0  3  0  0  0  0  0  0  0  0  0  0
   -0.5778    9.6047    7.0670 C   0  0  0  0  0  0  0  0  0  0  0  0
   -0.2404    9.5691    8.4683 O   0  0  0  0  0  0  0  0  0  0  0  0
    0.3285   10.5746    7.6107 O   0  0  0  0  0  0  0  0  0  0  0  0
    3.5797    3.6301    6.7849 C   0  0  0  0  0  0  0  0  0  0  0  0
    4.9277    3.9334    6.9973 C   0  0  0  0  0  0  0  0  0  0  0  0
    5.6959    3.0964    7.6984 N   0  3  0  0  0  0  0  0  0  0  0  0
    6.9937    3.4034    7.9030 F   0  0  0  0  0  0  0  0  0  0  0  0
    5.2259    1.9813    8.2161 N   0  0  0  0  0  0  0  0  0  0  0  0
    3.9336    1.6494    8.0186 C   0  0  0  0  0  0  0  0  0  0  0  0
    3.0752    2.4475    7.2713 N   0  3  0  0  0  0  0  0  0  0  0  0
    1.7871    2.0496    7.0725 C   0  0  0  0  0  0  0  0  0  0  0  0
    1.2672    0.9229    7.6923 C   0  0  0  0  0  0  0  0  0  0  0  0
   -0.1598    0.6498    7.5950 C   0  0  0  0  0  0  0  0  0  0  0  0
   -0.8587    1.3952    6.9324 O   0  0  0  0  0  0  0  0  0  0  0  0
   -0.6777   -0.5103    8.4098 C   0  0  0  0  0  0  0  0  0  0  0  0
   -1.6547   -1.1336    8.0381 O   0  0  0  0  0  0  0  0  0  0  0  0
    0.1532   -0.7886    9.6435 C   0  0  1  0  0  0  0  0  0  0  0  0
    1.5668   -0.8397    9.3147 O   0  0  0  0  0  0  0  0  0  0  0  0
    2.0603    0.1617    8.5174 C   0  0  0  0  0  0  0  0  0  0  0  0
    3.4257    0.4684    8.6235 C   0  0  0  0  0  0  0  0  0  0  0  0
    4.1928   -0.2511    9.5686 N   0  0  0  0  0  0  0  0  0  0  0  0
   -0.1665    0.1747   10.7676 C   0  0  1  0  0  0  0  0  0  0  0  0
   -1.5181    0.1536   11.2506 O   0  0  0  0  0  0  0  0  0  0  0  0
    0.8562    0.3464   11.7585 O   0  0  0  0  0  0  0  0  0  0  0  0
    0.5462    1.4193   11.0250 C   0  0  0  0  0  0  0  0  0  0  0  0
    1.2165    2.1431   10.2995 O   0  0  0  0  0  0  0  0  0  0  0  0
    4.5114    2.5403    2.1390 C   0  0  0  0  0  0  0  0  0  0  0  0
    5.3870    2.6585    1.1404 C   0  0  0  0  0  0  0  0  0  0  0  0
    5.6464    3.9812    0.5385 C   0  0  0  0  0  0  0  0  0  0  0  0
    6.1919    4.1249   -0.5434 O   0  0  0  0  0  0  0  0  0  0  0  0
    6.0631    1.6077    0.6455 F   0  0  0  0  0  0  0  0  0  0  0  0
    4.3133    1.3345    2.7178 F   0  0  0  0  0  0  0  0  0  0  0  0
  1  2  1  0  0  0  0
  2  3  2  0  0  0  0
  3  4  1  0  0  0  0
  3 51  1  0  0  0  0
  4  5  1  0  0  0  0
  5 49  1  0  0  0  0
  5  6  1  1  0  0  0
  6  7  1  0  0  0  0
  7  8  2  0  0  0  0
  7 12  1  0  0  0  0
  8  9  1  0  0  0  0
  8 26  1  0  0  0  0
  9 10  1  0  0  0  0
 10 11  2  0  0  0  0
 10 22  1  0  0  0  0
 11 12  1  0  0  0  0
 11 13  1  0  0  0  0
 13 14  1  0  0  0  0
 13 20  1  0  0  0  0
 14 15  1  0  0  0  0
 15 16  2  0  0  0  0
 15 17  1  0  0  0  0
 17 18  1  0  0  0  0
 18 19  2  0  0  0  0
 18 20  1  0  0  0  0
 20 21  2  0  0  0  0
 21 22  1  0  0  0  0
 21 23  1  0  0  0  0
 23 24  1  0  0  0  0
 23 25  1  0  0  0  0
 24 25  1  0  0  0  0
 26 27  2  0  0  0  0
 26 32  1  0  0  0  0
 27 28  1  0  0  0  0
 28 29  1  0  0  0  0
 28 30  2  0  0  0  0
 30 31  1  0  0  0  0
 31 32  2  0  0  0  0
 31 42  1  0  0  0  0
 32 33  1  0  0  0  0
 33 34  2  0  0  0  0
 34 35  1  0  0  0  0
 34 41  1  0  0  0  0
 35 36  2  0  0  0  0
 35 37  1  0  0  0  0
 37 38  2  0  0  0  0
 39 37  1  6  0  0  0
 39 40  1  0  0  0  0
 39 44  1  0  0  0  0
 40 41  1  0  0  0  0
 41 42  2  0  0  0  0
 42 43  1  0  0  0  0
 44 45  1  1  0  0  0
 44 46  1  0  0  0  0
 44 47  1  0  0  0  0
 46 47  1  0  0  0  0
 47 48  2  0  0  0  0
 49 50  2  0  0  0  0
 49 54  1  0  0  0  0
 50 51  1  0  0  0  0
 50 53  1  0  0  0  0
 51 52  2  0  0  0  0
M  CHG  3  22   1  28   1  32   1
M  END
$$$$