
 OpenBabel11272002573D

 53 61  0  0  1  0  0  0  0  0999 V2000
    4.3917   -2.1678    2.8339 O   0  0  0  0  0  0  0  0  0  0  0  0
    3.2394   -1.4273    2.8417 C   0  0  0  0  0  0  0  0  0  0  0  0
    2.3538   -1.4659    1.8404 C   0  0  0  0  0  0  0  0  0  0  0  0
    2.5831   -2.2300    0.7121 O   0  0  0  0  0  0  0  0  0  0  0  0
    1.4374   -2.6301   -0.0161 C   0  0  2  0  0  0  0  0  0  0  0  0
    1.8384   -3.1571   -1.2909 O   0  0  0  0  0  0  0  0  0  0  0  0
    2.1464   -4.4911   -1.4545 C   0  0  0  0  0  0  0  0  0  0  0  0
    2.0197   -5.0860   -2.6667 C   0  0  0  0  0  0  0  0  0  0  0  0
    2.0640   -6.4856   -2.8017 O   0  0  0  0  0  0  0  0  0  0  0  0
    1.8717   -7.1774   -1.5679 C   0  0  3  0  0  0  0  0  0  0  0  0
    2.9223   -6.7290   -0.5740 C   0  0  3  0  0  0  0  0  0  0  0  0
    2.6620   -5.2539   -0.2596 C   0  0  0  0  0  0  0  0  0  0  0  0
    2.8294   -7.5449    0.6839 C   0  0  0  0  0  0  0  0  0  0  0  0
    3.5138   -7.1810    1.7148 N   0  0  0  0  0  0  0  0  0  0  0  0
    3.2905   -7.8920    2.8736 C   0  0  0  0  0  0  0  0  0  0  0  0
    3.1655   -7.2917    3.9433 O   0  0  0  0  0  0  0  0  0  0  0  0
    3.1036   -9.2454    2.8038 N   0  0  0  0  0  0  0  0  0  0  0  0
    2.4128   -9.6740    1.7947 C   0  0  0  0  0  0  0  0  0  0  0  0
    1.8959   -8.7227    0.7373 C   0  0  3  0  0  0  0  0  0  0  0  0
    1.7145   -9.4003   -0.6338 C   0  0  3  0  0  0  0  0  0  0  0  0
    1.9446   -8.5653   -1.7724 O   0  3  0  0  0  0  0  0  0  0  0  0
    0.3621  -10.0785   -0.7268 C   0  0  3  0  0  0  0  0  0  0  0  0
   -0.8071   -9.2760   -0.6293 N   0  0  0  0  0  0  0  0  0  0  0  0
   -0.5374   -9.7136   -1.7617 N   0  0  0  0  0  0  0  0  0  0  0  0
    1.6977   -4.3769   -3.9557 C   0  0  0  0  0  0  0  0  0  0  0  0
    0.9857   -5.1519   -4.8013 N   0  0  0  0  0  0  0  0  0  0  0  0
    0.5655   -4.5670   -5.9290 C   0  0  0  0  0  0  0  0  0  0  0  0
   -0.0675   -5.3471   -6.8156 F   0  0  0  0  0  0  0  0  0  0  0  0
    0.7245   -3.2808   -6.2472 N   0  0  0  0  0  0  0  0  0  0  0  0
    1.4378   -2.5095   -5.4156 C   0  0  0  0  0  0  0  0  0  0  0  0
    2.0563   -3.0415   -4.2764 C   0  0  0  0  0  0  0  0  0  0  0  0
    2.9639   -2.2093   -3.5677 C   0  0  0  0  0  0  0  0  0  0  0  0
    3.0639   -0.8417   -3.8314 C   0  0  0  0  0  0  0  0  0  0  0  0
    3.9436    0.0006   -3.0184 C   0  0  0  0  0  0  0  0  0  0  0  0
    4.6671   -0.4826   -2.1612 O   0  0  0  0  0  0  0  0  0  0  0  0
    3.8725    1.4914   -3.2459 C   0  0  0  0  0  0  0  0  0  0  0  0
    4.6572    2.2427   -2.6828 O   0  0  0  0  0  0  0  0  0  0  0  0
    2.6759    1.9422   -4.0525 C   0  0  1  0  0  0  0  0  0  0  0  0
    2.3408    1.0558   -5.1367 O   0  0  0  0  0  0  0  0  0  0  0  0
    2.3275   -0.2792   -4.8502 C   0  0  0  0  0  0  0  0  0  0  0  0
    1.5801   -1.1339   -5.6681 C   0  0  0  0  0  0  0  0  0  0  0  0
    0.9579   -0.6061   -6.7363 F   0  0  0  0  0  0  0  0  0  0  0  0
    1.4691    2.2362   -3.1908 C   0  0  1  0  0  0  0  0  0  0  0  0
    0.2750    2.6324   -3.8890 O   0  0  0  0  0  0  0  0  0  0  0  0
    1.2742    1.3366   -2.0981 O   0  0  0  0  0  0  0  0  0  0  0  0
    1.5680    2.6964   -1.7444 C   0  0  3  0  0  0  0  0  0  0  0  0
    0.4475    3.4513   -1.2537 O   0  0  0  0  0  0  0  0  0  0  0  0
    0.4248   -1.5338   -0.3322 C   0  0  0  0  0  0  0  0  0  0  0  0
   -0.4329   -1.6072   -1.2013 O   0  0  0  0  0  0  0  0  0  0  0  0
    0.4810   -0.3723    0.6276 C   0  0  0  0  0  0  0  0  0  0  0  0
    0.0147    0.7203    0.3494 O   0  0  0  0  0  0  0  0  0  0  0  0
    1.1707   -0.5785    1.9461 C   0  0  0  0  0  0  0  0  0  0  0  0
    0.7530   -0.0755    2.9732 O   0  0  0  0  0  0  0  0  0  0  0  0
  1  2  1  0  0  0  0
  2  3  2  0  0  0  0
  3  4  1  0  0  0  0
  3 52  1  0  0  0  0
  4  5  1  0  0  0  0
  5  6  1  6  0  0  0
  5 48  1  0  0  0  0
  6  7  1  0  0  0  0
  7  8  2  0  0  0  0
  7 12  1  0  0  0  0
  8  9  1  0  0  0  0
  8 25  1  0  0  0  0
  9 10  1  0  0  0  0
 10 11  1  0  0  0  0
 10 21  1  0  0  0  0
 11 12  1  0  0  0  0
 11 13  1  0  0  0  0
 13 14  2  0  0  0  0
 13 19  1  0  0  0  0
 14 15  1  0  0  0  0
 15 16  2  0  0  0  0
 15 17  1  0  0  0  0
 17 18  2  0  0  0  0
 18 19  1  0  0  0  0
 19 20  1  0  0  0  0
 20 21  1  0  0  0  0
 20 22  1  0  0  0  0
 22 23  1  0  0  0  0
 22 24  1  0  0  0  0
 23 24  2  0  0  0  0
 25 26  2  0  0  0  0
 25 31  1  0  0  0  0
 26 27  1  0  0  0  0
 27 28  1  0  0  0  0
 27 29  2  0  0  0  0
 29 30  1  0  0  0  0
 30 31  2  0  0  0  0
 30 41  1  0  0  0  0
 31 32  1  0  0  0  0
 32 33  2  0  0  0  0
 33 34  1  0  0  0  0
 33 40  1  0  0  0  0
 34 35  2  0  0  0  0
 34 36  1  0  0  0  0
 36 37  2  0  0  0  0
 38 36  1  1  0  0  0
 38 39  1  0  0  0  0
 38 43  1  0  0  0  0
 39 40  1  0  0  0  0
 40 41  2  0  0  0  0
 41 42  1  0  0  0  0
 43 44  1  6  0  0  0
 43 45  1  0  0  0  0
 43 46  1  0  0  0  0
 45 46  1  0  0  0  0
 46 47  1  0  0  0  0
 48 49  2  0  0  0  0
 48 50  1  0  0  0  0
 50 51  2  0  0  0  0
 50 52  1  0  0  0  0
 52 53  2  0  0  0  0
M  CHG  1  21   1
M  END
$$$$