
 OpenBabel11252003253D

 54 63  0  0  1  0  0  0  0  0999 V2000
  -11.0132   -8.6525   12.8318 O   0  0  0  0  0  0  0  0  0  0  0  0
  -10.9003   -7.3950   13.3800 C   0  0  0  0  0  0  0  0  0  0  0  0
  -10.1071   -6.4522   12.8604 C   0  0  0  0  0  0  0  0  0  0  0  0
   -9.3313   -6.7349   11.7483 O   0  0  0  0  0  0  0  0  0  0  0  0
   -9.1046   -5.6186   10.8956 C   0  0  2  0  0  0  0  0  0  0  0  0
   -8.3750   -5.9987    9.7114 O   0  0  0  0  0  0  0  0  0  0  0  0
   -8.9656   -6.8659    8.8043 C   0  0  0  0  0  0  0  0  0  0  0  0
   -8.4766   -6.9988    7.5488 C   0  0  0  0  0  0  0  0  0  0  0  0
   -9.0868   -7.8655    6.6227 O   0  0  0  0  0  0  0  0  0  0  0  0
  -10.2766   -8.5296    6.9334 C   0  0  0  0  0  0  0  0  0  0  0  0
  -10.7782   -8.4982    8.1801 C   0  0  0  0  0  0  0  0  0  0  0  0
  -10.1323   -7.7059    9.2704 C   0  0  0  0  0  0  0  0  0  0  0  0
  -12.0239   -9.2499    8.5677 C   0  0  3  0  0  0  0  0  0  0  0  0
  -12.9617   -8.3266    9.0726 O   0  0  0  0  0  0  0  0  0  0  0  0
  -14.1418   -8.8620    9.4939 C   0  0  0  0  0  0  0  0  0  0  0  0
  -14.8061   -8.3061   10.3525 O   0  0  0  0  0  0  0  0  0  0  0  0
  -14.5296  -10.0187    8.8959 O   0  0  0  0  0  0  0  0  0  0  0  0
  -13.9391  -10.4778    7.7787 C   0  0  0  0  0  0  0  0  0  0  0  0
  -14.3861  -11.4065    7.1226 O   0  0  0  0  0  0  0  0  0  0  0  0
  -12.6609   -9.8749    7.4017 C   0  0  0  0  0  0  0  0  0  0  0  0
  -12.1344   -9.8715    6.1557 C   0  0  0  0  0  0  0  0  0  0  0  0
  -10.9157   -9.2261    5.9274 O   0  3  0  0  0  0  0  0  0  0  0  0
  -12.7632  -10.4585    4.9506 C   0  0  3  0  0  0  0  0  0  0  0  0
  -11.9862  -10.3999    3.7506 N   0  0  0  0  0  0  0  0  0  0  0  0
  -12.9292   -9.5956    3.8368 N   0  0  0  0  0  0  0  0  0  0  0  0
   -7.2271   -6.3110    7.0430 C   0  0  0  0  0  0  0  0  0  0  0  0
   -6.1709   -6.0679    7.9260 C   0  0  0  0  0  0  0  0  0  0  0  0
   -5.0082   -5.5611    7.5058 N   0  3  0  0  0  0  0  0  0  0  0  0
   -4.0354   -5.3240    8.4073 F   0  0  0  0  0  0  0  0  0  0  0  0
   -4.7537   -5.3245    6.2361 N   0  0  0  0  0  0  0  0  0  0  0  0
   -5.6925   -5.5466    5.3137 C   0  0  0  0  0  0  0  0  0  0  0  0
   -6.9825   -5.9965    5.6788 C   0  0  0  0  0  0  0  0  0  0  0  0
   -7.9328   -6.1445    4.6487 C   0  0  0  0  0  0  0  0  0  0  0  0
   -7.5761   -6.0386    3.3008 C   0  0  0  0  0  0  0  0  0  0  0  0
   -6.3031   -5.6607    2.9384 C   0  0  0  0  0  0  0  0  0  0  0  0
   -5.3693   -5.3500    3.9477 C   0  0  0  0  0  0  0  0  0  0  0  0
   -4.0259   -5.1103    3.5716 N   0  0  0  0  0  0  0  0  0  0  0  0
   -5.8997   -5.5393    1.6346 O   0  0  0  0  0  0  0  0  0  0  0  0
   -6.7377   -6.0821    0.5812 C   0  0  1  0  0  0  0  0  0  0  0  0
   -7.9445   -6.8456    0.9418 C   0  0  0  0  0  0  0  0  0  0  0  0
   -8.3894   -7.7792    0.2943 O   0  0  0  0  0  0  0  0  0  0  0  0
   -8.5191   -6.5020    2.2878 C   0  0  0  0  0  0  0  0  0  0  0  0
   -9.6673   -6.7785    2.6031 O   0  0  0  0  0  0  0  0  0  0  0  0
   -6.8424   -5.3100   -0.5890 O   0  0  0  0  0  0  0  0  0  0  0  0
   -6.0510   -6.5373   -0.6772 C   0  0  1  0  0  0  0  0  0  0  0  0
   -4.5959   -6.4268   -0.4365 O   0  0  0  0  0  0  0  0  0  0  0  0
   -5.0382   -6.3122   -1.6695 C   0  0  0  0  0  0  0  0  0  0  0  0
   -4.7329   -6.8916   -2.6919 O   0  0  0  0  0  0  0  0  0  0  0  0
   -8.2642   -4.6428   11.6829 C   0  0  0  0  0  0  0  0  0  0  0  0
   -7.1376   -4.2775   11.3807 O   0  0  0  0  0  0  0  0  0  0  0  0
   -8.9869   -4.1864   12.9288 C   0  0  0  0  0  0  0  0  0  0  0  0
   -8.7717   -3.0771   13.3791 O   0  0  0  0  0  0  0  0  0  0  0  0
  -10.0444   -5.1113   13.5210 C   0  0  0  0  0  0  0  0  0  0  0  0
  -10.7989   -4.7546   14.4079 O   0  0  0  0  0  0  0  0  0  0  0  0
  1  2  1  0  0  0  0
  2  3  2  0  0  0  0
  3  4  1  0  0  0  0
  3 53  1  0  0  0  0
  4  5  1  0  0  0  0
  5  6  1  6  0  0  0
  5 49  1  0  0  0  0
  6  7  1  0  0  0  0
  7  8  2  0  0  0  0
  7 12  1  0  0  0  0
  8  9  1  0  0  0  0
  8 26  1  0  0  0  0
  9 10  1  0  0  0  0
 10 11  2  0  0  0  0
 10 22  1  0  0  0  0
 11 12  1  0  0  0  0
 11 13  1  0  0  0  0
 13 14  1  0  0  0  0
 13 20  1  0  0  0  0
 14 15  1  0  0  0  0
 15 16  2  0  0  0  0
 15 17  1  0  0  0  0
 17 18  1  0  0  0  0
 18 19  2  0  0  0  0
 18 20  1  0  0  0  0
 20 21  2  0  0  0  0
 21 22  1  0  0  0  0
 21 23  1  0  0  0  0
 23 24  1  0  0  0  0
 23 25  1  0  0  0  0
 24 25  2  0  0  0  0
 26 27  2  0  0  0  0
 26 32  1  0  0  0  0
 27 28  1  0  0  0  0
 28 29  1  0  0  0  0
 28 30  2  0  0  0  0
 30 31  1  0  0  0  0
 31 32  2  0  0  0  0
 31 36  1  0  0  0  0
 32 33  1  0  0  0  0
 33 34  2  0  0  0  0
 34 35  1  0  0  0  0
 34 42  1  0  0  0  0
 35 36  2  0  0  0  0
 35 38  1  0  0  0  0
 36 37  1  0  0  0  0
 39 38  1  1  0  0  0
 39 40  1  0  0  0  0
 39 44  1  0  0  0  0
 39 45  1  0  0  0  0
 40 41  2  0  0  0  0
 40 42  1  0  0  0  0
 42 43  2  0  0  0  0
 45 44  1  1  0  0  0
 45 46  1  0  0  0  0
 45 47  1  0  0  0  0
 46 47  1  0  0  0  0
 47 48  2  0  0  0  0
 49 50  2  0  0  0  0
 49 51  1  0  0  0  0
 51 52  2  0  0  0  0
 51 53  1  0  0  0  0
 53 54  2  0  0  0  0
M  CHG  2  22   1  28   1
M  END
$$$$