
 OpenBabel09232009483D

 51 59  0  0  1  0  0  0  0  0999 V2000
    0.1170   -6.6500    2.2594 P   0  0  0  0  0  0  0  0  0  0  0  0
    1.6109   -6.3486    3.2393 C   0  0  0  0  0  0  0  0  0  0  0  0
    2.7492   -5.8704    2.7096 C   0  0  0  0  0  0  0  0  0  0  0  0
    2.8712   -5.5794    1.3618 O   0  0  0  0  0  0  0  0  0  0  0  0
    4.0043   -4.8172    0.9707 C   0  0  2  0  0  0  0  0  0  0  0  0
    4.1101   -4.6806   -0.4699 O   0  0  0  0  0  0  0  0  0  0  0  0
    4.3658   -5.8242   -1.2244 C   0  0  0  0  0  0  0  0  0  0  0  0
    5.1043   -5.7616   -2.3522 C   0  0  0  0  0  0  0  0  0  0  0  0
    5.3862   -6.8545   -3.1484 O   0  0  0  0  0  0  0  0  0  0  0  0
    4.8303   -8.0742   -2.8410 C   0  0  0  0  0  0  0  0  0  0  0  0
    4.0713   -8.2829   -1.7057 C   0  0  0  0  0  0  0  0  0  0  0  0
    3.8038   -7.1509   -0.7675 C   0  0  0  0  0  0  0  0  0  0  0  0
    3.6111   -9.5836   -1.4841 C   0  0  0  0  0  0  0  0  0  0  0  0
    2.8747   -9.9041   -0.3362 N   0  0  0  0  0  0  0  0  0  0  0  0
    2.4666  -11.1567   -0.0003 C   0  0  0  0  0  0  0  0  0  0  0  0
    1.8626  -11.3637    1.0460 O   0  0  0  0  0  0  0  0  0  0  0  0
    2.7823  -12.1587   -0.8509 N   0  0  0  0  0  0  0  0  0  0  0  0
    3.3326  -11.9747   -2.1680 C   0  0  0  0  0  0  0  0  0  0  0  0
    3.8841  -10.6003   -2.4032 C   0  0  0  0  0  0  0  0  0  0  0  0
    4.6291  -10.2919   -3.5489 C   0  0  0  0  0  0  0  0  0  0  0  0
    5.1206   -9.0356   -3.7330 N   0  0  0  0  0  0  0  0  0  0  0  0
    4.9166  -11.3228   -4.6170 C   0  0  0  0  0  0  0  0  0  0  0  0
    3.9432  -11.4697   -5.6615 O   0  0  0  0  0  0  0  0  0  0  0  0
    5.2180  -10.8571   -5.9420 O   0  0  0  0  0  0  0  0  0  0  0  0
    5.7225   -4.5197   -2.8610 C   0  0  0  0  0  0  0  0  0  0  0  0
    4.9327   -3.7947   -3.6825 N   0  0  0  0  0  0  0  0  0  0  0  0
    5.4490   -2.6570   -4.1279 C   0  0  0  0  0  0  0  0  0  0  0  0
    6.6463   -2.1866   -3.7925 N   0  0  0  0  0  0  0  0  0  0  0  0
    7.3790   -2.9373   -2.9683 C   0  0  0  0  0  0  0  0  0  0  0  0
    6.9801   -4.1596   -2.4910 N   0  3  0  0  0  0  0  0  0  0  0  0
    7.8049   -4.8923   -1.7002 C   0  0  0  0  0  0  0  0  0  0  0  0
    9.0103   -4.3646   -1.2459 C   0  0  0  0  0  0  0  0  0  0  0  0
    9.4052   -3.1083   -1.6422 C   0  0  0  0  0  0  0  0  0  0  0  0
    8.6007   -2.4225   -2.5432 C   0  0  0  0  0  0  0  0  0  0  0  0
   10.5356   -2.4764   -1.2227 O   0  0  0  0  0  0  0  0  0  0  0  0
   11.2558   -3.0374   -0.1054 C   0  0  2  0  0  0  0  0  0  0  0  0
   11.2061   -4.5462   -0.0217 C   0  0  0  0  0  0  0  0  0  0  0  0
   12.1502   -5.2705    0.2464 O   0  0  0  0  0  0  0  0  0  0  0  0
    9.8570   -5.1384   -0.3477 C   0  0  0  0  0  0  0  0  0  0  0  0
    9.4877   -6.2196    0.0723 O   0  0  0  0  0  0  0  0  0  0  0  0
   10.8242   -2.3865    1.1767 C   0  0  3  0  0  0  0  0  0  0  0  0
    9.4153   -2.4966    1.5239 O   0  0  0  0  0  0  0  0  0  0  0  0
   11.7103   -2.5144    2.2868 O   0  0  0  0  0  0  0  0  0  0  0  0
   11.5833   -1.2892    1.7426 C   0  0  0  0  0  0  0  0  0  0  0  0
   12.3913   -0.5465    1.2600 O   0  0  0  0  0  0  0  0  0  0  0  0
    5.3239   -5.3353    1.5219 C   0  0  0  0  0  0  0  0  0  0  0  0
    6.3515   -5.4747    0.8683 O   0  0  0  0  0  0  0  0  0  0  0  0
    5.2535   -5.6709    2.9808 C   0  0  0  0  0  0  0  0  0  0  0  0
    6.2868   -5.8674    3.5975 O   0  0  0  0  0  0  0  0  0  0  0  0
    3.9028   -5.7421    3.6528 C   0  0  0  0  0  0  0  0  0  0  0  0
    3.7980   -5.6694    4.8643 O   0  0  0  0  0  0  0  0  0  0  0  0
  1  2  1  0  0  0  0
  2  3  2  0  0  0  0
  3  4  1  0  0  0  0
  3 50  1  0  0  0  0
  4  5  1  0  0  0  0
  5  6  1  6  0  0  0
  5 46  1  0  0  0  0
  6  7  1  0  0  0  0
  7  8  2  0  0  0  0
  7 12  1  0  0  0  0
  8  9  1  0  0  0  0
  8 25  1  0  0  0  0
  9 10  1  0  0  0  0
 10 11  2  0  0  0  0
 10 21  1  0  0  0  0
 11 12  1  0  0  0  0
 11 13  1  0  0  0  0
 13 14  1  0  0  0  0
 13 19  2  0  0  0  0
 14 15  1  0  0  0  0
 15 16  2  0  0  0  0
 15 17  1  0  0  0  0
 17 18  1  0  0  0  0
 18 19  1  0  0  0  0
 19 20  1  0  0  0  0
 20 21  2  0  0  0  0
 20 22  1  0  0  0  0
 22 23  1  0  0  0  0
 22 24  1  0  0  0  0
 23 24  1  0  0  0  0
 25 26  2  0  0  0  0
 25 30  1  0  0  0  0
 26 27  1  0  0  0  0
 27 28  2  0  0  0  0
 28 29  1  0  0  0  0
 29 30  2  0  0  0  0
 29 34  1  0  0  0  0
 30 31  1  0  0  0  0
 31 32  2  0  0  0  0
 32 33  1  0  0  0  0
 32 39  1  0  0  0  0
 33 34  2  0  0  0  0
 33 35  1  0  0  0  0
 36 35  1  6  0  0  0
 36 37  1  0  0  0  0
 36 41  1  0  0  0  0
 37 38  2  0  0  0  0
 37 39  1  0  0  0  0
 39 40  2  0  0  0  0
 41 42  1  0  0  0  0
 41 43  1  0  0  0  0
 41 44  1  0  0  0  0
 43 44  1  0  0  0  0
 44 45  2  0  0  0  0
 46 47  2  0  0  0  0
 46 48  1  0  0  0  0
 48 49  2  0  0  0  0
 48 50  1  0  0  0  0
 50 51  2  0  0  0  0
M  CHG  1  30   1
M  END
$$$$