
 OpenBabel10192022373D

 50 58  0  0  1  0  0  0  0  0999 V2000
    1.4760   -0.0926    0.2678 O   0  0  0  0  0  0  0  0  0  0  0  0
    2.6959   -0.1832    0.2120 C   0  0  0  0  0  0  0  0  0  0  0  0
    3.2712   -1.4341    0.2489 N   0  0  0  0  0  0  0  0  0  0  0  0
    4.5576   -1.5242    0.2399 C   0  0  0  0  0  0  0  0  0  0  0  0
    5.4548   -0.3637    0.1889 C   0  0  0  0  0  0  0  0  0  0  0  0
    4.7166    0.9195    0.1030 C   0  0  0  0  0  0  0  0  0  0  0  0
    3.4251    0.9809    0.1150 N   0  0  0  0  0  0  0  0  0  0  0  0
    5.5101    2.1694   -0.0068 C   0  0  0  0  0  0  0  0  0  0  0  0
    4.7801    3.4590   -0.1077 C   0  0  0  0  0  0  0  0  0  0  0  0
    5.6914    4.6489   -0.2831 C   0  0  0  0  0  0  0  0  0  0  0  0
    7.0329    4.4632   -0.2694 C   0  0  0  0  0  0  0  0  0  0  0  0
    7.6409    3.2181   -0.0978 O   0  0  0  0  0  0  0  0  0  0  0  0
    6.8452    2.0835    0.0079 C   0  0  0  0  0  0  0  0  0  0  0  0
    7.4759    0.8700    0.1319 N   0  0  0  0  0  0  0  0  0  0  0  0
    6.8080   -0.3542    0.2015 C   0  0  0  0  0  0  0  0  0  0  0  0
    7.6967   -1.5466    0.2683 C   0  0  0  0  0  0  0  0  0  0  0  0
    7.2476   -2.9085    0.3216 O   0  0  0  0  0  0  0  0  0  0  0  0
    7.8663   -2.4023   -0.8750 O   0  0  0  0  0  0  0  0  0  0  0  0
    7.9868    5.5768   -0.4232 C   0  0  0  0  0  0  0  0  0  0  0  0
    8.3546    5.8257   -1.6981 N   0  0  0  0  0  0  0  0  0  0  0  0
    9.1325    6.8961   -1.8804 C   0  0  0  0  0  0  0  0  0  0  0  0
    9.5619    7.7331   -0.9258 N   0  0  0  0  0  0  0  0  0  0  0  0
    9.1985    7.4626    0.3307 C   0  0  0  0  0  0  0  0  0  0  0  0
    8.4224    6.3446    0.6692 C   0  0  0  0  0  0  0  0  0  0  0  0
    8.1393    6.0782    2.0316 C   0  0  0  0  0  0  0  0  0  0  0  0
    8.5696    6.9609    3.0230 C   0  0  0  0  0  0  0  0  0  0  0  0
    9.2451    8.1226    2.6758 C   0  0  0  0  0  0  0  0  0  0  0  0
    9.5879    8.3384    1.3399 C   0  0  0  0  0  0  0  0  0  0  0  0
    9.6049    9.0987    3.5647 O   0  0  0  0  0  0  0  0  0  0  0  0
    8.8717    9.1184    4.7989 C   0  0  2  0  0  0  0  0  0  0  0  0
    8.6883    7.7564    5.4239 C   0  0  0  0  0  0  0  0  0  0  0  0
    8.7819    7.5252    6.6210 O   0  0  0  0  0  0  0  0  0  0  0  0
    8.3162    6.6709    4.4396 C   0  0  0  0  0  0  0  0  0  0  0  0
    7.8519    5.6042    4.8087 O   0  0  0  0  0  0  0  0  0  0  0  0
    7.5553    9.8173    4.6408 C   0  0  1  0  0  0  0  0  0  0  0  0
    6.6169    9.2440    3.6960 O   0  0  0  0  0  0  0  0  0  0  0  0
    6.9823   10.2660    5.8720 O   0  0  0  0  0  0  0  0  0  0  0  0
    7.3260   11.2218    4.9847 C   0  0  0  0  0  0  0  0  0  0  0  0
    6.6396   12.0528    4.4431 O   0  0  0  0  0  0  0  0  0  0  0  0
    5.1390    5.9229   -0.4367 O   0  0  0  0  0  0  0  0  0  0  0  0
    3.7060    6.0495   -0.4782 C   0  0  1  0  0  0  0  0  0  0  0  0
    3.1306    5.5750    0.7364 O   0  0  0  0  0  0  0  0  0  0  0  0
    1.7158    5.6246    0.7420 C   0  0  3  0  0  0  0  0  0  0  0  0
    1.1780    4.9055   -0.3438 O   0  0  0  0  0  0  0  0  0  0  0  0
    1.2277    7.0567    0.7648 C   0  0  0  0  0  0  0  0  0  0  0  0
    0.1110    7.4100    1.1110 O   0  0  0  0  0  0  0  0  0  0  0  0
    2.2451    8.0228    0.2118 C   0  0  0  0  0  0  0  0  0  0  0  0
    2.1970    9.2029    0.5257 O   0  0  0  0  0  0  0  0  0  0  0  0
    3.3411    7.5169   -0.7033 C   0  0  0  0  0  0  0  0  0  0  0  0
    3.8216    8.2504   -1.5562 O   0  0  0  0  0  0  0  0  0  0  0  0
  1  2  2  0  0  0  0
  2  3  1  0  0  0  0
  2  7  1  0  0  0  0
  3  4  2  0  0  0  0
  4  5  1  0  0  0  0
  5  6  1  0  0  0  0
  5 15  2  0  0  0  0
  6  7  2  0  0  0  0
  6  8  1  0  0  0  0
  8  9  1  0  0  0  0
  8 13  2  0  0  0  0
  9 10  1  0  0  0  0
 10 11  2  0  0  0  0
 10 40  1  0  0  0  0
 11 12  1  0  0  0  0
 11 19  1  0  0  0  0
 12 13  1  0  0  0  0
 13 14  1  0  0  0  0
 14 15  1  0  0  0  0
 15 16  1  0  0  0  0
 16 17  1  0  0  0  0
 16 18  1  0  0  0  0
 17 18  1  0  0  0  0
 19 20  2  0  0  0  0
 19 24  1  0  0  0  0
 20 21  1  0  0  0  0
 21 22  2  0  0  0  0
 22 23  1  0  0  0  0
 23 24  2  0  0  0  0
 23 28  1  0  0  0  0
 24 25  1  0  0  0  0
 25 26  2  0  0  0  0
 26 27  1  0  0  0  0
 26 33  1  0  0  0  0
 27 28  2  0  0  0  0
 27 29  1  0  0  0  0
 30 29  1  6  0  0  0
 30 31  1  0  0  0  0
 30 35  1  0  0  0  0
 31 32  2  0  0  0  0
 31 33  1  0  0  0  0
 33 34  2  0  0  0  0
 35 36  1  6  0  0  0
 35 37  1  0  0  0  0
 35 38  1  0  0  0  0
 37 38  1  0  0  0  0
 38 39  2  0  0  0  0
 41 40  1  1  0  0  0
 41 42  1  0  0  0  0
 41 49  1  0  0  0  0
 42 43  1  0  0  0  0
 43 44  1  0  0  0  0
 43 45  1  0  0  0  0
 45 46  2  0  0  0  0
 45 47  1  0  0  0  0
 47 48  2  0  0  0  0
 47 49  1  0  0  0  0
 49 50  2  0  0  0  0
M  END
$$$$