
 OpenBabel11272002323D

 54 62  0  0  1  0  0  0  0  0999 V2000
    3.1476    3.1652   -4.3152 F   0  0  0  0  0  0  0  0  0  0  0  0
    3.3710    2.6830   -3.0764 C   0  0  0  0  0  0  0  0  0  0  0  0
    2.9440    1.4706   -2.7179 C   0  0  0  0  0  0  0  0  0  0  0  0
    2.2181    0.6731   -3.5849 O   0  0  0  0  0  0  0  0  0  0  0  0
    2.6679   -0.6808   -3.5889 C   0  0  2  0  0  0  0  0  0  0  0  0
    1.9902   -1.4877   -4.5870 O   0  0  0  0  0  0  0  0  0  0  0  0
    2.1371   -1.1626   -5.9266 C   0  0  0  0  0  0  0  0  0  0  0  0
    1.9922   -2.0854   -6.9101 C   0  0  0  0  0  0  0  0  0  0  0  0
    2.0746   -1.7159   -8.2698 O   0  0  0  0  0  0  0  0  0  0  0  0
    2.3578   -0.3930   -8.6393 C   0  0  0  0  0  0  0  0  0  0  0  0
    2.5124    0.5617   -7.7097 C   0  0  0  0  0  0  0  0  0  0  0  0
    2.4202    0.2773   -6.2559 C   0  0  0  0  0  0  0  0  0  0  0  0
    2.7609    2.0000   -8.0472 C   0  0  3  0  0  0  0  0  0  0  0  0
    4.0293    2.3672   -7.5485 O   0  0  0  0  0  0  0  0  0  0  0  0
    4.3755    3.6708   -7.7168 C   0  0  0  0  0  0  0  0  0  0  0  0
    5.2576    4.1972   -7.0335 O   0  0  0  0  0  0  0  0  0  0  0  0
    3.7076    4.3390   -8.6786 O   0  0  0  0  0  0  0  0  0  0  0  0
    3.0317    3.6764   -9.7513 C   0  0  3  0  0  0  0  0  0  0  0  0
    2.8261    2.2220   -9.5074 C   0  0  0  0  0  0  0  0  0  0  0  0
    2.6892    1.2243  -10.4077 C   0  0  0  0  0  0  0  0  0  0  0  0
    2.4758   -0.0890   -9.9790 O   0  3  0  0  0  0  0  0  0  0  0  0
    2.6839    1.4273  -11.8698 C   0  0  3  0  0  0  0  0  0  0  0  0
    1.5285    0.9954  -12.5707 N   0  0  0  0  0  0  0  0  0  0  0  0
    2.5290    0.2662  -12.6820 N   0  0  0  0  0  0  0  0  0  0  0  0
    1.7245    4.1999   -9.8659 O   0  0  0  0  0  0  0  0  0  0  0  0
    1.7523   -3.5572   -6.6569 C   0  0  0  0  0  0  0  0  0  0  0  0
    0.9788   -3.9526   -5.5582 C   0  0  0  0  0  0  0  0  0  0  0  0
    0.7746   -5.2432   -5.2721 N   0  3  0  0  0  0  0  0  0  0  0  0
    0.0785   -5.5681   -4.1649 F   0  0  0  0  0  0  0  0  0  0  0  0
    1.2201   -6.2177   -6.0351 N   0  0  0  0  0  0  0  0  0  0  0  0
    1.9324   -5.9342   -7.1244 C   0  0  0  0  0  0  0  0  0  0  0  0
    2.2619   -4.6065   -7.4782 C   0  0  0  0  0  0  0  0  0  0  0  0
    3.0825   -4.4370   -8.6224 C   0  0  0  0  0  0  0  0  0  0  0  0
    3.4644   -5.5184   -9.4324 C   0  0  0  0  0  0  0  0  0  0  0  0
    4.2375   -5.2783  -10.6556 C   0  0  0  0  0  0  0  0  0  0  0  0
    4.6412   -4.1518  -10.9078 O   0  0  0  0  0  0  0  0  0  0  0  0
    4.4477   -6.4614  -11.5782 C   0  0  0  0  0  0  0  0  0  0  0  0
    5.2459   -6.3908  -12.4995 O   0  0  0  0  0  0  0  0  0  0  0  0
    3.5429   -7.6399  -11.2836 C   0  0  1  0  0  0  0  0  0  0  0  0
    3.3715   -7.8950   -9.8759 O   0  0  0  0  0  0  0  0  0  0  0  0
    3.0801   -6.8029   -9.1095 C   0  0  0  0  0  0  0  0  0  0  0  0
    2.3534   -6.9927   -7.9363 C   0  0  0  0  0  0  0  0  0  0  0  0
    2.0052   -8.2427   -7.5904 F   0  0  0  0  0  0  0  0  0  0  0  0
    2.1998   -7.4702  -11.9447 C   0  0  1  0  0  0  0  0  0  0  0  0
    1.4022   -6.3345  -11.5329 O   0  0  0  0  0  0  0  0  0  0  0  0
    2.1595   -7.7698  -13.3386 O   0  0  0  0  0  0  0  0  0  0  0  0
    1.4193   -8.6512  -12.4885 C   0  0  3  0  0  0  0  0  0  0  0  0
   -0.0083   -8.4630  -12.5156 O   0  0  0  0  0  0  0  0  0  0  0  0
    2.3809   -1.3246   -2.2433 C   0  0  0  0  0  0  0  0  0  0  0  0
    2.0387   -2.4920   -2.1020 O   0  0  0  0  0  0  0  0  0  0  0  0
    2.5890   -0.3753   -1.0767 C   0  0  0  0  0  0  0  0  0  0  0  0
    2.1970   -0.6717    0.0367 O   0  0  0  0  0  0  0  0  0  0  0  0
    3.2365    0.9730   -1.3499 C   0  0  0  0  0  0  0  0  0  0  0  0
    3.9710    1.5259   -0.5567 O   0  0  0  0  0  0  0  0  0  0  0  0
  1  2  1  0  0  0  0
  2  3  2  0  0  0  0
  3  4  1  0  0  0  0
  3 53  1  0  0  0  0
  4  5  1  0  0  0  0
  5  6  1  6  0  0  0
  5 49  1  0  0  0  0
  6  7  1  0  0  0  0
  7  8  2  0  0  0  0
  7 12  1  0  0  0  0
  8  9  1  0  0  0  0
  8 26  1  0  0  0  0
  9 10  1  0  0  0  0
 10 11  2  0  0  0  0
 10 21  1  0  0  0  0
 11 12  1  0  0  0  0
 11 13  1  0  0  0  0
 13 14  1  0  0  0  0
 13 19  1  0  0  0  0
 14 15  1  0  0  0  0
 15 16  2  0  0  0  0
 15 17  1  0  0  0  0
 17 18  1  0  0  0  0
 18 19  1  0  0  0  0
 18 25  1  0  0  0  0
 19 20  2  0  0  0  0
 20 21  1  0  0  0  0
 20 22  1  0  0  0  0
 22 23  1  0  0  0  0
 22 24  1  0  0  0  0
 23 24  2  0  0  0  0
 26 27  2  0  0  0  0
 26 32  1  0  0  0  0
 27 28  1  0  0  0  0
 28 29  1  0  0  0  0
 28 30  2  0  0  0  0
 30 31  1  0  0  0  0
 31 32  2  0  0  0  0
 31 42  1  0  0  0  0
 32 33  1  0  0  0  0
 33 34  2  0  0  0  0
 34 35  1  0  0  0  0
 34 41  1  0  0  0  0
 35 36  2  0  0  0  0
 35 37  1  0  0  0  0
 37 38  2  0  0  0  0
 39 37  1  1  0  0  0
 39 40  1  0  0  0  0
 39 44  1  0  0  0  0
 40 41  1  0  0  0  0
 41 42  2  0  0  0  0
 42 43  1  0  0  0  0
 44 45  1  1  0  0  0
 44 46  1  0  0  0  0
 44 47  1  0  0  0  0
 46 47  1  0  0  0  0
 47 48  1  0  0  0  0
 49 50  2  0  0  0  0
 49 51  1  0  0  0  0
 51 52  2  0  0  0  0
 51 53  1  0  0  0  0
 53 54  2  0  0  0  0
M  CHG  2  21   1  28   1
M  END
$$$$