
 OpenBabel11242001383D

 54 62  0  0  1  0  0  0  0  0999 V2000
    0.3784   -4.2304   -4.4057 O   0  0  0  0  0  0  0  0  0  0  0  0
    1.4389   -4.4256   -5.2499 C   0  0  0  0  0  0  0  0  0  0  0  0
    2.2223   -3.4318   -5.6910 C   0  0  0  0  0  0  0  0  0  0  0  0
    1.9691   -2.1049   -5.3875 O   0  0  0  0  0  0  0  0  0  0  0  0
    3.1211   -1.3533   -5.0294 C   0  0  2  0  0  0  0  0  0  0  0  0
    2.7626   -0.0017   -4.6478 O   0  0  0  0  0  0  0  0  0  0  0  0
    2.5437    0.9478   -5.6416 C   0  0  0  0  0  0  0  0  0  0  0  0
    2.7888    2.2559   -5.4124 C   0  0  0  0  0  0  0  0  0  0  0  0
    2.6903    3.2438   -6.3790 O   0  0  0  0  0  0  0  0  0  0  0  0
    2.2311    2.9146   -7.6318 C   0  0  0  0  0  0  0  0  0  0  0  0
    1.8518    1.6337   -7.9590 C   0  0  0  0  0  0  0  0  0  0  0  0
    2.0191    0.5092   -6.9905 C   0  0  0  0  0  0  0  0  0  0  0  0
    1.3325    1.4376   -9.2363 C   0  0  0  0  0  0  0  0  0  0  0  0
    0.9351    0.1470   -9.5720 O   0  0  0  0  0  0  0  0  0  0  0  0
    0.3823   -0.0964  -10.8075 C   0  0  0  0  0  0  0  0  0  0  0  0
    0.0179   -1.2902  -11.1043 N   0  0  0  0  0  0  0  0  0  0  0  0
    0.2175    0.9101  -11.6822 O   0  0  0  0  0  0  0  0  0  0  0  0
    0.5327    2.1885  -11.4004 C   0  0  0  0  0  0  0  0  0  0  0  0
    0.2313    3.0956  -12.1627 O   0  0  0  0  0  0  0  0  0  0  0  0
    1.2009    2.4753  -10.1321 C   0  0  0  0  0  0  0  0  0  0  0  0
    1.6553    3.7443   -9.7558 C   0  0  0  0  0  0  0  0  0  0  0  0
    2.1556    3.9461   -8.4936 N   0  0  0  0  0  0  0  0  0  0  0  0
    1.6173    4.9547  -10.6603 C   0  0  0  0  0  0  0  0  0  0  0  0
    2.8549    5.6697  -10.8384 O   0  0  0  0  0  0  0  0  0  0  0  0
    2.3075    4.8957  -11.9182 O   0  0  0  0  0  0  0  0  0  0  0  0
    3.2207    2.8114   -4.1167 C   0  0  0  0  0  0  0  0  0  0  0  0
    4.5826    2.8737   -3.8510 C   0  0  0  0  0  0  0  0  0  0  0  0
    5.0268    3.4620   -2.7361 N   0  3  0  0  0  0  0  0  0  0  0  0
    6.3536    3.5366   -2.5184 F   0  0  0  0  0  0  0  0  0  0  0  0
    4.2168    3.9918   -1.8370 N   0  0  0  0  0  0  0  0  0  0  0  0
    2.8941    3.9712   -2.0389 C   0  0  0  0  0  0  0  0  0  0  0  0
    2.3273    3.3873   -3.1849 C   0  0  0  0  0  0  0  0  0  0  0  0
    0.9171    3.4334   -3.3386 C   0  0  0  0  0  0  0  0  0  0  0  0
    0.0977    4.0417   -2.3731 C   0  0  0  0  0  0  0  0  0  0  0  0
   -1.3538    4.1108   -2.5681 C   0  0  0  0  0  0  0  0  0  0  0  0
   -1.8763    3.6580   -3.5731 O   0  0  0  0  0  0  0  0  0  0  0  0
   -2.1648    4.7606   -1.4720 C   0  0  0  0  0  0  0  0  0  0  0  0
   -3.3623    4.5386   -1.3725 O   0  0  0  0  0  0  0  0  0  0  0  0
   -1.3773    5.6850   -0.5709 C   0  0  1  0  0  0  0  0  0  0  0  0
   -0.0553    5.2198   -0.2494 O   0  0  0  0  0  0  0  0  0  0  0  0
    0.6558    4.5976   -1.2369 C   0  0  0  0  0  0  0  0  0  0  0  0
    2.0460    4.5527   -1.0924 C   0  0  0  0  0  0  0  0  0  0  0  0
    2.5976    5.1219   -0.0070 F   0  0  0  0  0  0  0  0  0  0  0  0
   -1.3871    7.1001   -1.0895 C   0  0  1  0  0  0  0  0  0  0  0  0
   -2.6702    7.7281   -1.2358 O   0  0  0  0  0  0  0  0  0  0  0  0
   -0.3603    7.9682   -0.5869 O   0  0  0  0  0  0  0  0  0  0  0  0
   -0.2932    7.6473   -1.8969 C   0  0  0  0  0  0  0  0  0  0  0  0
    0.5799    7.1151   -2.5363 O   0  0  0  0  0  0  0  0  0  0  0  0
    4.2689   -1.4176   -6.0396 C   0  0  0  0  0  0  0  0  0  0  0  0
    4.9825   -0.4706   -6.3500 O   0  0  0  0  0  0  0  0  0  0  0  0
    4.4572   -2.7751   -6.6568 C   0  0  0  0  0  0  0  0  0  0  0  0
    5.5188   -3.0310   -7.2027 O   0  0  0  0  0  0  0  0  0  0  0  0
    3.3682   -3.8174   -6.5583 C   0  0  0  0  0  0  0  0  0  0  0  0
    3.4590   -4.8887   -7.1330 O   0  0  0  0  0  0  0  0  0  0  0  0
  1  2  1  0  0  0  0
  2  3  2  0  0  0  0
  3  4  1  0  0  0  0
  3 53  1  0  0  0  0
  4  5  1  0  0  0  0
  5  6  1  6  0  0  0
  5 49  1  0  0  0  0
  6  7  1  0  0  0  0
  7  8  2  0  0  0  0
  7 12  1  0  0  0  0
  8  9  1  0  0  0  0
  8 26  1  0  0  0  0
  9 10  1  0  0  0  0
 10 11  2  0  0  0  0
 10 22  1  0  0  0  0
 11 12  1  0  0  0  0
 11 13  1  0  0  0  0
 13 14  1  0  0  0  0
 13 20  2  0  0  0  0
 14 15  1  0  0  0  0
 15 16  2  0  0  0  0
 15 17  1  0  0  0  0
 17 18  1  0  0  0  0
 18 19  2  0  0  0  0
 18 20  1  0  0  0  0
 20 21  1  0  0  0  0
 21 22  2  0  0  0  0
 21 23  1  0  0  0  0
 23 24  1  0  0  0  0
 23 25  1  0  0  0  0
 24 25  1  0  0  0  0
 26 27  2  0  0  0  0
 26 32  1  0  0  0  0
 27 28  1  0  0  0  0
 28 29  1  0  0  0  0
 28 30  2  0  0  0  0
 30 31  1  0  0  0  0
 31 32  2  0  0  0  0
 31 42  1  0  0  0  0
 32 33  1  0  0  0  0
 33 34  2  0  0  0  0
 34 35  1  0  0  0  0
 34 41  1  0  0  0  0
 35 36  2  0  0  0  0
 35 37  1  0  0  0  0
 37 38  2  0  0  0  0
 39 37  1  6  0  0  0
 39 40  1  0  0  0  0
 39 44  1  0  0  0  0
 40 41  1  0  0  0  0
 41 42  2  0  0  0  0
 42 43  1  0  0  0  0
 44 45  1  6  0  0  0
 44 46  1  0  0  0  0
 44 47  1  0  0  0  0
 46 47  1  0  0  0  0
 47 48  2  0  0  0  0
 49 50  2  0  0  0  0
 49 51  1  0  0  0  0
 51 52  2  0  0  0  0
 51 53  1  0  0  0  0
 53 54  2  0  0  0  0
M  CHG  1  28   1
M  END
$$$$