
 OpenBabel11242002033D

 54 62  0  0  1  0  0  0  0  0999 V2000
   -1.2438   -2.1973   -4.8296 O   0  0  0  0  0  0  0  0  0  0  0  0
   -0.9489   -1.2344   -3.8963 C   0  0  0  0  0  0  0  0  0  0  0  0
   -0.1506   -1.4610   -2.8457 C   0  0  0  0  0  0  0  0  0  0  0  0
    0.3775   -2.7229   -2.6274 O   0  0  0  0  0  0  0  0  0  0  0  0
    1.6735   -2.7369   -2.0384 C   0  0  2  0  0  0  0  0  0  0  0  0
    2.1396   -4.0978   -1.8751 O   0  0  0  0  0  0  0  0  0  0  0  0
    2.2329   -4.8609   -3.0330 C   0  0  0  0  0  0  0  0  0  0  0  0
    2.0480   -6.1979   -3.0038 C   0  0  0  0  0  0  0  0  0  0  0  0
    2.1229   -7.0018   -4.1419 O   0  0  0  0  0  0  0  0  0  0  0  0
    2.4445   -6.4247   -5.3736 C   0  0  0  0  0  0  0  0  0  0  0  0
    2.7181   -5.1112   -5.4807 C   0  0  0  0  0  0  0  0  0  0  0  0
    2.6204   -4.1716   -4.3170 C   0  0  0  0  0  0  0  0  0  0  0  0
    3.1327   -4.4832   -6.7826 C   0  0  3  0  0  0  0  0  0  0  0  0
    4.4716   -4.0547   -6.6193 O   0  0  0  0  0  0  0  0  0  0  0  0
    5.1237   -3.5404   -7.7000 C   0  0  0  0  0  0  0  0  0  0  0  0
    6.1609   -2.9203   -7.5741 O   0  0  0  0  0  0  0  0  0  0  0  0
    4.5549   -3.7798   -8.9073 O   0  0  0  0  0  0  0  0  0  0  0  0
    3.5744   -4.7853   -9.1390 C   0  0  3  0  0  0  0  0  0  0  0  0
    3.1407   -5.4625   -7.8903 C   0  0  0  0  0  0  0  0  0  0  0  0
    2.8171   -6.7633   -7.7284 C   0  0  0  0  0  0  0  0  0  0  0  0
    2.4850   -7.2512   -6.4735 O   0  3  0  0  0  0  0  0  0  0  0  0
    2.8162   -7.7567   -8.8254 C   0  0  0  0  0  0  0  0  0  0  0  0
    3.9833   -8.5347   -9.1134 O   0  0  0  0  0  0  0  0  0  0  0  0
    2.8280   -9.1642   -8.5261 O   0  0  0  0  0  0  0  0  0  0  0  0
    2.4062   -4.1774   -9.6498 O   0  0  0  0  0  0  0  0  0  0  0  0
    1.7644   -6.9346   -1.7525 C   0  0  0  0  0  0  0  0  0  0  0  0
    2.8386   -7.4040   -0.9993 C   0  0  0  0  0  0  0  0  0  0  0  0
    2.6330   -8.0514    0.1537 N   0  3  0  0  0  0  0  0  0  0  0  0
    3.6923   -8.5143    0.8458 F   0  0  0  0  0  0  0  0  0  0  0  0
    1.4256   -8.2629    0.6432 N   0  0  0  0  0  0  0  0  0  0  0  0
    0.3523   -7.8142   -0.0163 C   0  0  0  0  0  0  0  0  0  0  0  0
    0.4649   -7.1491   -1.2524 C   0  0  0  0  0  0  0  0  0  0  0  0
   -0.7164   -6.7328   -1.9097 C   0  0  0  0  0  0  0  0  0  0  0  0
   -1.9749   -6.9306   -1.3249 C   0  0  0  0  0  0  0  0  0  0  0  0
   -3.1902   -6.5112   -2.0293 C   0  0  0  0  0  0  0  0  0  0  0  0
   -3.1286   -6.1452   -3.1918 O   0  0  0  0  0  0  0  0  0  0  0  0
   -4.4917   -6.5789   -1.2584 C   0  0  0  0  0  0  0  0  0  0  0  0
   -5.5588   -6.4132   -1.8276 O   0  0  0  0  0  0  0  0  0  0  0  0
   -4.3254   -6.7990    0.2280 C   0  0  1  0  0  0  0  0  0  0  0  0
   -3.2723   -7.7227    0.5614 O   0  0  0  0  0  0  0  0  0  0  0  0
   -2.0837   -7.5340   -0.0859 C   0  0  0  0  0  0  0  0  0  0  0  0
   -0.9197   -7.9947    0.5328 C   0  0  0  0  0  0  0  0  0  0  0  0
   -1.0225   -8.6153    1.7189 F   0  0  0  0  0  0  0  0  0  0  0  0
   -4.1010   -5.4924    0.9248 C   0  0  1  0  0  0  0  0  0  0  0  0
   -2.9736   -4.7685    0.5414 F   0  0  0  0  0  0  0  0  0  0  0  0
   -5.2829   -4.7231    1.1757 O   0  0  0  0  0  0  0  0  0  0  0  0
   -4.6120   -5.2622    2.3166 C   0  0  3  0  0  0  0  0  0  0  0  0
   -3.9065   -4.3802    3.1137 F   0  0  0  0  0  0  0  0  0  0  0  0
    1.6248   -2.0539   -0.6878 C   0  0  0  0  0  0  0  0  0  0  0  0
    1.9779   -2.5477    0.3716 O   0  0  0  0  0  0  0  0  0  0  0  0
    1.0908   -0.6478   -0.7958 C   0  0  0  0  0  0  0  0  0  0  0  0
    1.5163    0.2185   -0.0520 O   0  0  0  0  0  0  0  0  0  0  0  0
    0.1132   -0.3242   -1.9112 C   0  0  0  0  0  0  0  0  0  0  0  0
   -0.3728    0.7853   -2.0410 O   0  0  0  0  0  0  0  0  0  0  0  0
  1  2  1  0  0  0  0
  2  3  2  0  0  0  0
  3  4  1  0  0  0  0
  3 53  1  0  0  0  0
  4  5  1  0  0  0  0
  5  6  1  1  0  0  0
  5 49  1  0  0  0  0
  6  7  1  0  0  0  0
  7  8  2  0  0  0  0
  7 12  1  0  0  0  0
  8  9  1  0  0  0  0
  8 26  1  0  0  0  0
  9 10  1  0  0  0  0
 10 11  2  0  0  0  0
 10 21  1  0  0  0  0
 11 12  1  0  0  0  0
 11 13  1  0  0  0  0
 13 14  1  0  0  0  0
 13 19  1  0  0  0  0
 14 15  1  0  0  0  0
 15 16  2  0  0  0  0
 15 17  1  0  0  0  0
 17 18  1  0  0  0  0
 18 19  1  0  0  0  0
 18 25  1  0  0  0  0
 19 20  2  0  0  0  0
 20 21  1  0  0  0  0
 20 22  1  0  0  0  0
 22 23  1  0  0  0  0
 22 24  1  0  0  0  0
 23 24  1  0  0  0  0
 26 27  2  0  0  0  0
 26 32  1  0  0  0  0
 27 28  1  0  0  0  0
 28 29  1  0  0  0  0
 28 30  2  0  0  0  0
 30 31  1  0  0  0  0
 31 32  2  0  0  0  0
 31 42  1  0  0  0  0
 32 33  1  0  0  0  0
 33 34  2  0  0  0  0
 34 35  1  0  0  0  0
 34 41  1  0  0  0  0
 35 36  2  0  0  0  0
 35 37  1  0  0  0  0
 37 38  2  0  0  0  0
 39 37  1  6  0  0  0
 39 40  1  0  0  0  0
 39 44  1  0  0  0  0
 40 41  1  0  0  0  0
 41 42  2  0  0  0  0
 42 43  1  0  0  0  0
 44 45  1  6  0  0  0
 44 46  1  0  0  0  0
 44 47  1  0  0  0  0
 46 47  1  0  0  0  0
 47 48  1  0  0  0  0
 49 50  2  0  0  0  0
 49 51  1  0  0  0  0
 51 52  2  0  0  0  0
 51 53  1  0  0  0  0
 53 54  2  0  0  0  0
M  CHG  2  21   1  28   1
M  END
$$$$