
 OpenBabel11152012563D

 53 61  0  0  1  0  0  0  0  0999 V2000
    7.6691   -2.6204   -2.4787 O   0  0  0  0  0  0  0  0  0  0  0  0
    7.1684   -1.3744   -2.7540 C   0  0  0  0  0  0  0  0  0  0  0  0
    5.8872   -1.1660   -3.0849 C   0  0  0  0  0  0  0  0  0  0  0  0
    5.0068   -2.2213   -3.2387 O   0  0  0  0  0  0  0  0  0  0  0  0
    3.6636   -1.9590   -2.8611 C   0  0  2  0  0  0  0  0  0  0  0  0
    2.7684   -3.0221   -3.2905 O   0  0  0  0  0  0  0  0  0  0  0  0
    2.7041   -3.3850   -4.6319 C   0  0  0  0  0  0  0  0  0  0  0  0
    2.3184   -4.6226   -5.0181 C   0  0  0  0  0  0  0  0  0  0  0  0
    2.2497   -5.0237   -6.3565 O   0  0  0  0  0  0  0  0  0  0  0  0
    2.5844   -4.1200   -7.3627 C   0  0  0  0  0  0  0  0  0  0  0  0
    2.9111   -2.8496   -7.0750 C   0  0  0  0  0  0  0  0  0  0  0  0
    2.9850   -2.3453   -5.6724 C   0  0  0  0  0  0  0  0  0  0  0  0
    3.2535   -1.8446   -8.1313 C   0  0  3  0  0  0  0  0  0  0  0  0
    4.5918   -1.4281   -7.9251 O   0  0  0  0  0  0  0  0  0  0  0  0
    5.0426   -0.4586   -8.7644 C   0  0  0  0  0  0  0  0  0  0  0  0
    6.0169    0.2255   -8.5007 O   0  0  0  0  0  0  0  0  0  0  0  0
    4.3196   -0.3045   -9.9027 O   0  0  0  0  0  0  0  0  0  0  0  0
    3.6261   -1.4070  -10.4797 C   0  0  3  0  0  0  0  0  0  0  0  0
    3.2346   -2.4391   -9.4830 C   0  0  0  0  0  0  0  0  0  0  0  0
    2.9203   -3.7343   -9.7147 C   0  0  0  0  0  0  0  0  0  0  0  0
    2.5744   -4.5728   -8.6615 O   0  3  0  0  0  0  0  0  0  0  0  0
    2.9294   -4.3439  -11.0641 C   0  0  0  0  0  0  0  0  0  0  0  0
    4.1136   -4.9605  -11.5871 O   0  0  0  0  0  0  0  0  0  0  0  0
    2.9800   -5.7719  -11.2233 O   0  0  0  0  0  0  0  0  0  0  0  0
    2.3948   -0.9366  -10.9963 O   0  0  0  0  0  0  0  0  0  0  0  0
    1.9003   -5.6591   -4.0541 C   0  0  0  0  0  0  0  0  0  0  0  0
    2.8885   -6.4801   -3.6552 N   0  0  0  0  0  0  0  0  0  0  0  0
    2.6295   -7.3757   -2.7493 N   0  0  0  0  0  0  0  0  0  0  0  0
    1.4326   -7.5054   -2.2121 N   0  0  0  0  0  0  0  0  0  0  0  0
    0.4089   -6.7223   -2.5873 C   0  0  0  0  0  0  0  0  0  0  0  0
    0.5950   -5.7540   -3.5679 C   0  0  0  0  0  0  0  0  0  0  0  0
   -0.4942   -4.9432   -3.9749 C   0  0  0  0  0  0  0  0  0  0  0  0
   -1.7381   -5.0526   -3.3452 C   0  0  0  0  0  0  0  0  0  0  0  0
   -2.8290   -4.1564   -3.7281 C   0  0  0  0  0  0  0  0  0  0  0  0
   -2.6762   -3.3102   -4.5953 O   0  0  0  0  0  0  0  0  0  0  0  0
   -4.1409   -4.3299   -3.0023 C   0  0  0  0  0  0  0  0  0  0  0  0
   -5.1722   -3.8720   -3.4720 O   0  0  0  0  0  0  0  0  0  0  0  0
   -4.0355   -5.0494   -1.6768 C   0  0  1  0  0  0  0  0  0  0  0  0
   -3.1006   -6.1418   -1.6469 O   0  0  0  0  0  0  0  0  0  0  0  0
   -1.9332   -5.9827   -2.3416 C   0  0  0  0  0  0  0  0  0  0  0  0
   -0.8673   -6.8267   -2.0004 C   0  0  0  0  0  0  0  0  0  0  0  0
   -1.0702   -7.7742   -1.0207 O   0  0  0  0  0  0  0  0  0  0  0  0
   -3.7672   -4.0887   -0.5493 C   0  0  1  0  0  0  0  0  0  0  0  0
   -2.5600   -3.3010   -0.6406 O   0  0  0  0  0  0  0  0  0  0  0  0
   -4.9034   -3.3645   -0.0661 O   0  0  0  0  0  0  0  0  0  0  0  0
   -4.3621   -4.2647    0.7636 C   0  0  0  0  0  0  0  0  0  0  0  0
   -4.8469   -5.2305    1.3260 O   0  0  0  0  0  0  0  0  0  0  0  0
    3.0964   -0.5691   -3.2102 C   0  0  0  0  0  0  0  0  0  0  0  0
    1.8966   -0.3068   -3.0850 O   0  0  0  0  0  0  0  0  0  0  0  0
    4.0465    0.3996   -3.8652 C   0  0  3  0  0  0  0  0  0  0  0  0
    5.4640    0.2323   -3.4004 C   0  0  0  0  0  0  0  0  0  0  0  0
    6.2494    1.1763   -3.3506 O   0  0  0  0  0  0  0  0  0  0  0  0
    3.9610    0.3015   -5.2304 F   0  0  0  0  0  0  0  0  0  0  0  0
  1  2  1  0  0  0  0
  2  3  2  0  0  0  0
  3  4  1  0  0  0  0
  3 51  1  0  0  0  0
  4  5  1  0  0  0  0
  5  6  1  6  0  0  0
  5 48  1  0  0  0  0
  6  7  1  0  0  0  0
  7  8  2  0  0  0  0
  7 12  1  0  0  0  0
  8  9  1  0  0  0  0
  8 26  1  0  0  0  0
  9 10  1  0  0  0  0
 10 11  2  0  0  0  0
 10 21  1  0  0  0  0
 11 12  1  0  0  0  0
 11 13  1  0  0  0  0
 13 14  1  0  0  0  0
 13 19  1  0  0  0  0
 14 15  1  0  0  0  0
 15 16  2  0  0  0  0
 15 17  1  0  0  0  0
 17 18  1  0  0  0  0
 18 19  1  0  0  0  0
 18 25  1  0  0  0  0
 19 20  2  0  0  0  0
 20 21  1  0  0  0  0
 20 22  1  0  0  0  0
 22 23  1  0  0  0  0
 22 24  1  0  0  0  0
 23 24  1  0  0  0  0
 26 27  2  0  0  0  0
 26 31  1  0  0  0  0
 27 28  1  0  0  0  0
 28 29  2  0  0  0  0
 29 30  1  0  0  0  0
 30 31  2  0  0  0  0
 30 41  1  0  0  0  0
 31 32  1  0  0  0  0
 32 33  2  0  0  0  0
 33 34  1  0  0  0  0
 33 40  1  0  0  0  0
 34 35  2  0  0  0  0
 34 36  1  0  0  0  0
 36 37  2  0  0  0  0
 38 36  1  6  0  0  0
 38 39  1  0  0  0  0
 38 43  1  0  0  0  0
 39 40  1  0  0  0  0
 40 41  2  0  0  0  0
 41 42  1  0  0  0  0
 43 44  1  6  0  0  0
 43 45  1  0  0  0  0
 43 46  1  0  0  0  0
 45 46  1  0  0  0  0
 46 47  2  0  0  0  0
 48 49  2  0  0  0  0
 48 50  1  0  0  0  0
 50 51  1  0  0  0  0
 50 53  1  0  0  0  0
 51 52  2  0  0  0  0
M  CHG  1  21   1
M  END
$$$$