
 OpenBabel11212022233D

 54 62  0  0  1  0  0  0  0  0999 V2000
    4.0621   -4.2517    3.0013 N   0  0  0  0  0  0  0  0  0  0  0  0
    4.2267   -4.5253    1.9521 N   0  3  0  0  0  0  0  0  0  0  0  0
    4.4446   -4.8232    0.5534 C   0  0  3  0  0  0  0  0  0  0  0  0
    3.9600   -3.8612   -0.4112 O   0  0  0  0  0  0  0  0  0  0  0  0
    4.8843   -3.0879   -1.1947 C   0  0  2  0  0  0  0  0  0  0  0  0
    4.2031   -2.4317   -2.2826 O   0  0  0  0  0  0  0  0  0  0  0  0
    3.9741   -3.1103   -3.4738 C   0  0  0  0  0  0  0  0  0  0  0  0
    3.8640   -2.4526   -4.6538 C   0  0  0  0  0  0  0  0  0  0  0  0
    3.7648   -3.1246   -5.8846 O   0  0  0  0  0  0  0  0  0  0  0  0
    3.7069   -4.5258   -5.9183 C   0  0  0  0  0  0  0  0  0  0  0  0
    3.6749   -5.2384   -4.7794 C   0  0  0  0  0  0  0  0  0  0  0  0
    3.7947   -4.6101   -3.4302 C   0  0  0  0  0  0  0  0  0  0  0  0
    3.5417   -6.7339   -4.7695 C   0  0  3  0  0  0  0  0  0  0  0  0
    2.3012   -7.0107   -4.1505 O   0  0  0  0  0  0  0  0  0  0  0  0
    1.8340   -8.2869   -4.1485 C   0  0  0  0  0  0  0  0  0  0  0  0
    0.9255   -8.6097   -3.4016 O   0  0  0  0  0  0  0  0  0  0  0  0
    2.4345   -9.1508   -4.9982 O   0  0  0  0  0  0  0  0  0  0  0  0
    3.3603   -8.7804   -6.0163 C   0  0  3  0  0  0  0  0  0  0  0  0
    3.5082   -7.3043   -6.1290 C   0  0  0  0  0  0  0  0  0  0  0  0
    3.5990   -6.5449   -7.2438 C   0  0  0  0  0  0  0  0  0  0  0  0
    3.6734   -5.1572   -7.1467 O   0  3  0  0  0  0  0  0  0  0  0  0
    3.6005   -7.0933   -8.6204 C   0  0  0  0  0  0  0  0  0  0  0  0
    2.3799   -7.2761   -9.3443 O   0  0  0  0  0  0  0  0  0  0  0  0
    3.2967   -6.2351   -9.7348 O   0  0  0  0  0  0  0  0  0  0  0  0
    4.6443   -9.2562   -5.6613 O   0  0  0  0  0  0  0  0  0  0  0  0
    3.8372   -0.9665   -4.7814 C   0  0  0  0  0  0  0  0  0  0  0  0
    5.0403   -0.2781   -4.9324 C   0  0  0  0  0  0  0  0  0  0  0  0
    5.0554    1.0518   -5.0980 N   0  3  0  0  0  0  0  0  0  0  0  0
    6.2326    1.6820   -5.2789 F   0  0  0  0  0  0  0  0  0  0  0  0
    3.9564    1.7770   -5.1180 N   0  0  0  0  0  0  0  0  0  0  0  0
    2.7655    1.1885   -5.0081 C   0  0  0  0  0  0  0  0  0  0  0  0
    2.6365   -0.2055   -4.8316 C   0  0  0  0  0  0  0  0  0  0  0  0
    1.3221   -0.7376   -4.7617 C   0  0  0  0  0  0  0  0  0  0  0  0
    0.1895    0.0823   -4.9430 C   0  0  0  0  0  0  0  0  0  0  0  0
   -1.1540   -0.5052   -5.0098 C   0  0  0  0  0  0  0  0  0  0  0  0
   -1.3031   -1.6966   -4.7885 O   0  0  0  0  0  0  0  0  0  0  0  0
   -2.2975    0.4100   -5.4103 C   0  0  0  0  0  0  0  0  0  0  0  0
   -3.4550    0.0338   -5.3160 O   0  0  0  0  0  0  0  0  0  0  0  0
   -1.8631    1.7379   -5.9930 C   0  0  1  0  0  0  0  0  0  0  0  0
   -0.7098    2.2994   -5.3413 O   0  0  0  0  0  0  0  0  0  0  0  0
    0.3330    1.4438   -5.1282 C   0  0  0  0  0  0  0  0  0  0  0  0
    1.6189    1.9786   -5.1187 C   0  0  0  0  0  0  0  0  0  0  0  0
    1.7671    3.3009   -5.2975 F   0  0  0  0  0  0  0  0  0  0  0  0
   -1.6167    1.6250   -7.4647 C   0  0  1  0  0  0  0  0  0  0  0  0
   -0.5896    0.6815   -7.8877 O   0  0  0  0  0  0  0  0  0  0  0  0
   -2.7602    1.7172   -8.2959 O   0  0  0  0  0  0  0  0  0  0  0  0
   -1.8641    2.7181   -8.4153 C   0  0  0  0  0  0  0  0  0  0  0  0
   -1.1583    3.0208   -9.3584 O   0  0  0  0  0  0  0  0  0  0  0  0
    6.1757   -3.8332   -1.5542 C   0  0  0  0  0  0  0  0  0  0  0  0
    6.6355   -4.0663   -2.6559 O   0  0  0  0  0  0  0  0  0  0  0  0
    6.7674   -4.3904   -0.3131 C   0  0  0  0  0  0  0  0  0  0  0  0
    7.7903   -3.9071    0.1262 O   0  0  0  0  0  0  0  0  0  0  0  0
    5.8882   -5.2417    0.5501 C   0  0  0  0  0  0  0  0  0  0  0  0
    6.3254   -6.1312    1.2527 O   0  0  0  0  0  0  0  0  0  0  0  0
  1  2  3  0  0  0  0
  2  3  1  0  0  0  0
  3  4  1  0  0  0  0
  3 53  1  0  0  0  0
  4  5  1  0  0  0  0
  5  6  1  6  0  0  0
  5 49  1  0  0  0  0
  6  7  1  0  0  0  0
  7  8  2  0  0  0  0
  7 12  1  0  0  0  0
  8  9  1  0  0  0  0
  8 26  1  0  0  0  0
  9 10  1  0  0  0  0
 10 11  2  0  0  0  0
 10 21  1  0  0  0  0
 11 12  1  0  0  0  0
 11 13  1  0  0  0  0
 13 14  1  0  0  0  0
 13 19  1  0  0  0  0
 14 15  1  0  0  0  0
 15 16  2  0  0  0  0
 15 17  1  0  0  0  0
 17 18  1  0  0  0  0
 18 19  1  0  0  0  0
 18 25  1  0  0  0  0
 19 20  2  0  0  0  0
 20 21  1  0  0  0  0
 20 22  1  0  0  0  0
 22 23  1  0  0  0  0
 22 24  1  0  0  0  0
 23 24  1  0  0  0  0
 26 27  2  0  0  0  0
 26 32  1  0  0  0  0
 27 28  1  0  0  0  0
 28 29  1  0  0  0  0
 28 30  2  0  0  0  0
 30 31  1  0  0  0  0
 31 32  2  0  0  0  0
 31 42  1  0  0  0  0
 32 33  1  0  0  0  0
 33 34  2  0  0  0  0
 34 35  1  0  0  0  0
 34 41  1  0  0  0  0
 35 36  2  0  0  0  0
 35 37  1  0  0  0  0
 37 38  2  0  0  0  0
 39 37  1  1  0  0  0
 39 40  1  0  0  0  0
 39 44  1  0  0  0  0
 40 41  1  0  0  0  0
 41 42  2  0  0  0  0
 42 43  1  0  0  0  0
 44 45  1  6  0  0  0
 44 46  1  0  0  0  0
 44 47  1  0  0  0  0
 46 47  1  0  0  0  0
 47 48  2  0  0  0  0
 49 50  2  0  0  0  0
 49 51  1  0  0  0  0
 51 52  2  0  0  0  0
 51 53  1  0  0  0  0
 53 54  2  0  0  0  0
M  CHG  3   2   1  21   1  28   1
M  END
$$$$