
 OpenBabel11272019213D

 54 62  0  0  1  0  0  0  0  0999 V2000
   -1.6221    1.9720   -4.9593 O   0  0  0  0  0  0  0  0  0  0  0  0
   -1.4992    1.6759   -3.6246 C   0  0  0  0  0  0  0  0  0  0  0  0
   -0.7530    0.6641   -3.1671 C   0  0  0  0  0  0  0  0  0  0  0  0
   -0.0960   -0.1952   -4.0280 O   0  0  0  0  0  0  0  0  0  0  0  0
    1.2501   -0.4438   -3.6326 C   0  0  2  0  0  0  0  0  0  0  0  0
    1.8986   -1.3119   -4.5799 O   0  0  0  0  0  0  0  0  0  0  0  0
    1.9492   -0.8844   -5.8987 C   0  0  0  0  0  0  0  0  0  0  0  0
    1.9446   -1.7715   -6.9148 C   0  0  0  0  0  0  0  0  0  0  0  0
    2.0528   -1.4004   -8.2511 O   0  0  0  0  0  0  0  0  0  0  0  0
    2.2099   -0.0600   -8.5802 C   0  0  0  0  0  0  0  0  0  0  0  0
    2.2598    0.9003   -7.6354 C   0  0  0  0  0  0  0  0  0  0  0  0
    2.1168    0.5865   -6.1733 C   0  0  0  0  0  0  0  0  0  0  0  0
    2.4237    2.3535   -7.9855 C   0  0  3  0  0  0  0  0  0  0  0  0
    3.6063    2.8361   -7.3881 O   0  0  0  0  0  0  0  0  0  0  0  0
    3.9085    4.1431   -7.6320 C   0  0  0  0  0  0  0  0  0  0  0  0
    4.6150    4.7751   -6.8633 O   0  0  0  0  0  0  0  0  0  0  0  0
    3.3934    4.6910   -8.7649 O   0  0  0  0  0  0  0  0  0  0  0  0
    2.8562    3.9425   -9.7438 C   0  0  0  0  0  0  0  0  0  0  0  0
    2.5320    4.3981  -10.8306 O   0  0  0  0  0  0  0  0  0  0  0  0
    2.5895    2.5415   -9.4323 C   0  0  0  0  0  0  0  0  0  0  0  0
    2.5108    1.5479  -10.3442 C   0  0  0  0  0  0  0  0  0  0  0  0
    2.3090    0.2422   -9.9184 O   0  3  0  0  0  0  0  0  0  0  0  0
    2.6795    1.7219  -11.8073 C   0  0  0  0  0  0  0  0  0  0  0  0
    3.9669    1.5834  -12.4203 O   0  0  0  0  0  0  0  0  0  0  0  0
    2.9570    0.5809  -12.6414 O   0  0  0  0  0  0  0  0  0  0  0  0
    1.8930   -3.2321   -6.7055 C   0  0  0  0  0  0  0  0  0  0  0  0
    3.1130   -3.9009   -6.6025 C   0  0  0  0  0  0  0  0  0  0  0  0
    3.0955   -5.2632   -6.4118 C   0  0  0  0  0  0  0  0  0  0  0  0
    4.2651   -5.9112   -6.3390 F   0  0  0  0  0  0  0  0  0  0  0  0
    1.9713   -5.9905   -6.3149 N   0  0  0  0  0  0  0  0  0  0  0  0
    0.7843   -5.3654   -6.3868 C   0  0  0  0  0  0  0  0  0  0  0  0
    0.6838   -3.9685   -6.5985 C   0  0  0  0  0  0  0  0  0  0  0  0
   -0.6024   -3.3887   -6.6974 C   0  0  0  0  0  0  0  0  0  0  0  0
   -1.7579   -4.1689   -6.5624 C   0  0  0  0  0  0  0  0  0  0  0  0
   -3.0814   -3.5582   -6.7227 C   0  0  0  0  0  0  0  0  0  0  0  0
   -3.1957   -2.4050   -7.1100 O   0  0  0  0  0  0  0  0  0  0  0  0
   -4.2827   -4.4308   -6.4293 C   0  0  0  0  0  0  0  0  0  0  0  0
   -5.4102   -4.0570   -6.7186 O   0  0  0  0  0  0  0  0  0  0  0  0
   -3.9595   -5.7264   -5.7199 C   0  0  1  0  0  0  0  0  0  0  0  0
   -2.7409   -6.3490   -6.1421 O   0  0  0  0  0  0  0  0  0  0  0  0
   -1.6628   -5.5253   -6.3101 C   0  0  0  0  0  0  0  0  0  0  0  0
   -0.3943   -6.1052   -6.2500 C   0  0  0  0  0  0  0  0  0  0  0  0
   -0.3151   -7.4308   -6.0405 F   0  0  0  0  0  0  0  0  0  0  0  0
   -3.9663   -5.5420   -4.2360 C   0  0  1  0  0  0  0  0  0  0  0  0
   -3.0403   -4.5620   -3.6968 O   0  0  0  0  0  0  0  0  0  0  0  0
   -5.2568   -5.5735   -3.6351 O   0  0  0  0  0  0  0  0  0  0  0  0
   -4.4133   -6.5674   -3.2917 C   0  0  0  0  0  0  0  0  0  0  0  0
   -3.9612   -6.8510   -2.2022 O   0  0  0  0  0  0  0  0  0  0  0  0
    1.3662   -1.0794   -2.2522 C   0  0  0  0  0  0  0  0  0  0  0  0
    2.3163   -1.7408   -1.8602 O   0  0  0  0  0  0  0  0  0  0  0  0
    0.2234   -0.7220   -1.3314 C   0  0  0  0  0  0  0  0  0  0  0  0
   -0.0054   -1.3832   -0.3332 O   0  0  0  0  0  0  0  0  0  0  0  0
   -0.6561    0.4537   -1.6973 C   0  0  0  0  0  0  0  0  0  0  0  0
   -1.1679    1.1740   -0.8602 O   0  0  0  0  0  0  0  0  0  0  0  0
  1  2  1  0  0  0  0
  2  3  2  0  0  0  0
  3  4  1  0  0  0  0
  3 53  1  0  0  0  0
  4  5  1  0  0  0  0
  5  6  1  6  0  0  0
  5 49  1  0  0  0  0
  6  7  1  0  0  0  0
  7  8  2  0  0  0  0
  7 12  1  0  0  0  0
  8  9  1  0  0  0  0
  8 26  1  0  0  0  0
  9 10  1  0  0  0  0
 10 11  2  0  0  0  0
 10 22  1  0  0  0  0
 11 12  1  0  0  0  0
 11 13  1  0  0  0  0
 13 14  1  0  0  0  0
 13 20  1  0  0  0  0
 14 15  1  0  0  0  0
 15 16  2  0  0  0  0
 15 17  1  0  0  0  0
 17 18  1  0  0  0  0
 18 19  2  0  0  0  0
 18 20  1  0  0  0  0
 20 21  2  0  0  0  0
 21 22  1  0  0  0  0
 21 23  1  0  0  0  0
 23 24  1  0  0  0  0
 23 25  1  0  0  0  0
 24 25  1  0  0  0  0
 26 27  2  0  0  0  0
 26 32  1  0  0  0  0
 27 28  1  0  0  0  0
 28 29  1  0  0  0  0
 28 30  2  0  0  0  0
 30 31  1  0  0  0  0
 31 32  2  0  0  0  0
 31 42  1  0  0  0  0
 32 33  1  0  0  0  0
 33 34  2  0  0  0  0
 34 35  1  0  0  0  0
 34 41  1  0  0  0  0
 35 36  2  0  0  0  0
 35 37  1  0  0  0  0
 37 38  2  0  0  0  0
 39 37  1  6  0  0  0
 39 40  1  0  0  0  0
 39 44  1  0  0  0  0
 40 41  1  0  0  0  0
 41 42  2  0  0  0  0
 42 43  1  0  0  0  0
 44 45  1  1  0  0  0
 44 46  1  0  0  0  0
 44 47  1  0  0  0  0
 46 47  1  0  0  0  0
 47 48  2  0  0  0  0
 49 50  2  0  0  0  0
 49 51  1  0  0  0  0
 51 52  2  0  0  0  0
 51 53  1  0  0  0  0
 53 54  2  0  0  0  0
M  CHG  1  22   1
M  END
$$$$