
 OpenBabel11242002153D

 54 61  0  0  1  0  0  0  0  0999 V2000
   -2.2650    0.9308   -4.5694 O   0  0  0  0  0  0  0  0  0  0  0  0
   -1.8018    0.9660   -3.2779 C   0  0  0  0  0  0  0  0  0  0  0  0
   -0.6715    0.3613   -2.8932 C   0  0  0  0  0  0  0  0  0  0  0  0
    0.0675   -0.3709   -3.8051 O   0  0  0  0  0  0  0  0  0  0  0  0
    1.4498   -0.5109   -3.5221 C   0  0  2  0  0  0  0  0  0  0  0  0
    2.0612   -1.3738   -4.5054 O   0  0  0  0  0  0  0  0  0  0  0  0
    2.0820   -0.9260   -5.8232 C   0  0  0  0  0  0  0  0  0  0  0  0
    2.0894   -1.7862   -6.8725 C   0  0  0  0  0  0  0  0  0  0  0  0
    2.1103   -1.3254   -8.2015 O   0  0  0  0  0  0  0  0  0  0  0  0
    2.2339    0.0458   -8.4723 C   0  0  0  0  0  0  0  0  0  0  0  0
    2.3320    0.9398   -7.4741 C   0  0  0  0  0  0  0  0  0  0  0  0
    2.2173    0.5553   -6.0383 C   0  0  0  0  0  0  0  0  0  0  0  0
    2.5646    2.4005   -7.7164 C   0  0  3  0  0  0  0  0  0  0  0  0
    3.8424    2.6938   -7.1860 O   0  0  0  0  0  0  0  0  0  0  0  0
    4.3466    3.9500   -7.3557 C   0  0  0  0  0  0  0  0  0  0  0  0
    5.2984    4.3390   -6.7180 O   0  0  0  0  0  0  0  0  0  0  0  0
    3.7276    4.7110   -8.2895 O   0  0  0  0  0  0  0  0  0  0  0  0
    2.8565    4.1911   -9.2922 C   0  0  3  0  0  0  0  0  0  0  0  0
    2.6246    2.7268   -9.1578 C   0  0  0  0  0  0  0  0  0  0  0  0
    2.4836    1.7938  -10.1267 C   0  0  0  0  0  0  0  0  0  0  0  0
    2.2798    0.4550   -9.7891 O   0  3  0  0  0  0  0  0  0  0  0  0
    2.5193    2.0728  -11.5859 C   0  0  0  0  0  0  0  0  0  0  0  0
    2.9997    1.0691  -12.4974 O   0  0  0  0  0  0  0  0  0  0  0  0
    1.6021    1.4118  -12.4719 O   0  0  0  0  0  0  0  0  0  0  0  0
    1.5821    4.7812   -9.1410 O   0  0  0  0  0  0  0  0  0  0  0  0
    2.1297   -3.2801   -6.6930 C   0  0  0  0  0  0  0  0  0  0  0  0
    2.8741   -3.7811   -5.6166 C   0  0  0  0  0  0  0  0  0  0  0  0
    2.9233   -5.0841   -5.3389 N   0  3  0  0  0  0  0  0  0  0  0  0
    3.6363   -5.4992   -4.2741 F   0  0  0  0  0  0  0  0  0  0  0  0
    2.2925   -5.9806   -6.0609 N   0  0  0  0  0  0  0  0  0  0  0  0
    1.5764   -5.5949   -7.1161 C   0  0  0  0  0  0  0  0  0  0  0  0
    1.4765   -4.2414   -7.5154 C   0  0  0  0  0  0  0  0  0  0  0  0
    0.7182   -3.9713   -8.6870 C   0  0  0  0  0  0  0  0  0  0  0  0
    0.0471   -4.9926   -9.3842 C   0  0  0  0  0  0  0  0  0  0  0  0
   -0.7082   -4.6907  -10.6064 C   0  0  0  0  0  0  0  0  0  0  0  0
   -0.7192   -3.5595  -11.0642 O   0  0  0  0  0  0  0  0  0  0  0  0
   -1.4153   -5.8639  -11.2628 C   0  0  0  0  0  0  0  0  0  0  0  0
   -1.6502   -5.8565  -12.4597 O   0  0  0  0  0  0  0  0  0  0  0  0
   -1.7215   -7.0056  -10.3263 C   0  0  1  0  0  0  0  0  0  0  0  0
   -0.5906   -7.3350   -9.5019 O   0  0  0  0  0  0  0  0  0  0  0  0
    0.0898   -6.2967   -8.9318 C   0  0  0  0  0  0  0  0  0  0  0  0
    0.8875   -6.5784   -7.8258 C   0  0  0  0  0  0  0  0  0  0  0  0
    0.9788   -7.8508   -7.4072 F   0  0  0  0  0  0  0  0  0  0  0  0
   -2.9843   -6.6491   -9.5403 C   0  0  0  0  0  0  0  0  0  0  0  0
   -3.3646   -7.7508   -8.5770 C   0  0  0  0  0  0  0  0  0  0  0  0
   -2.9411   -7.8187   -7.4242 O   0  0  0  0  0  0  0  0  0  0  0  0
   -2.7688   -5.4699   -8.8799 F   0  0  0  0  0  0  0  0  0  0  0  0
   -4.0010   -6.4020  -10.4090 F   0  0  0  0  0  0  0  0  0  0  0  0
    1.6630   -1.0907   -2.1396 C   0  0  0  0  0  0  0  0  0  0  0  0
    2.2971   -2.1014   -1.8793 O   0  0  0  0  0  0  0  0  0  0  0  0
    1.0086   -0.2283   -1.0933 C   0  0  0  0  0  0  0  0  0  0  0  0
    1.5861   -0.0095   -0.0436 O   0  0  0  0  0  0  0  0  0  0  0  0
   -0.2918    0.4654   -1.4504 C   0  0  0  0  0  0  0  0  0  0  0  0
   -0.9461    1.0694   -0.6192 O   0  0  0  0  0  0  0  0  0  0  0  0
  1  2  1  0  0  0  0
  2  3  2  0  0  0  0
  3  4  1  0  0  0  0
  3 53  1  0  0  0  0
  4  5  1  0  0  0  0
  5  6  1  6  0  0  0
  5 49  1  0  0  0  0
  6  7  1  0  0  0  0
  7  8  2  0  0  0  0
  7 12  1  0  0  0  0
  8  9  1  0  0  0  0
  8 26  1  0  0  0  0
  9 10  1  0  0  0  0
 10 11  2  0  0  0  0
 10 21  1  0  0  0  0
 11 12  1  0  0  0  0
 11 13  1  0  0  0  0
 13 14  1  0  0  0  0
 13 19  1  0  0  0  0
 14 15  1  0  0  0  0
 15 16  2  0  0  0  0
 15 17  1  0  0  0  0
 17 18  1  0  0  0  0
 18 19  1  0  0  0  0
 18 25  1  0  0  0  0
 19 20  2  0  0  0  0
 20 21  1  0  0  0  0
 20 22  1  0  0  0  0
 22 23  1  0  0  0  0
 22 24  1  0  0  0  0
 23 24  1  0  0  0  0
 26 27  2  0  0  0  0
 26 32  1  0  0  0  0
 27 28  1  0  0  0  0
 28 29  1  0  0  0  0
 28 30  2  0  0  0  0
 30 31  1  0  0  0  0
 31 32  2  0  0  0  0
 31 42  1  0  0  0  0
 32 33  1  0  0  0  0
 33 34  2  0  0  0  0
 34 35  1  0  0  0  0
 34 41  1  0  0  0  0
 35 36  2  0  0  0  0
 35 37  1  0  0  0  0
 37 38  2  0  0  0  0
 37 39  1  0  0  0  0
 39 40  1  0  0  0  0
 39 44  1  1  0  0  0
 40 41  1  0  0  0  0
 41 42  2  0  0  0  0
 42 43  1  0  0  0  0
 44 45  1  0  0  0  0
 44 47  1  0  0  0  0
 44 48  1  0  0  0  0
 45 46  2  0  0  0  0
 49 50  2  0  0  0  0
 49 51  1  0  0  0  0
 51 52  2  0  0  0  0
 51 53  1  0  0  0  0
 53 54  2  0  0  0  0
M  CHG  2  21   1  28   1
M  END
$$$$