
 OpenBabel11212019583D

 54 62  0  0  1  0  0  0  0  0999 V2000
    3.7974    0.5317    6.7655 O   0  0  0  0  0  0  0  0  0  0  0  0
    4.9359   -0.0793    6.3151 C   0  0  0  0  0  0  0  0  0  0  0  0
    4.8876   -1.1758    5.5527 C   0  0  0  0  0  0  0  0  0  0  0  0
    3.6625   -1.7590    5.2655 O   0  0  0  0  0  0  0  0  0  0  0  0
    3.4138   -1.8435    3.8716 C   0  0  2  0  0  0  0  0  0  0  0  0
    2.2951   -2.7318    3.5653 O   0  0  0  0  0  0  0  0  0  0  0  0
    2.3528   -4.0780    3.9189 C   0  0  0  0  0  0  0  0  0  0  0  0
    1.6748   -5.0377    3.2368 C   0  0  0  0  0  0  0  0  0  0  0  0
    1.7849   -6.4014    3.5943 O   0  0  0  0  0  0  0  0  0  0  0  0
    2.6733   -6.8101    4.6026 C   0  0  0  0  0  0  0  0  0  0  0  0
    3.2924   -5.9010    5.3699 C   0  0  0  0  0  0  0  0  0  0  0  0
    3.1374   -4.4395    5.1486 C   0  0  0  0  0  0  0  0  0  0  0  0
    4.2332   -6.2686    6.4786 C   0  0  3  0  0  0  0  0  0  0  0  0
    3.6461   -5.8447    7.6932 O   0  0  0  0  0  0  0  0  0  0  0  0
    4.3522   -6.0850    8.8304 C   0  0  0  0  0  0  0  0  0  0  0  0
    4.1196   -5.4814    9.8643 O   0  0  0  0  0  0  0  0  0  0  0  0
    5.3159   -7.0336    8.7366 O   0  0  0  0  0  0  0  0  0  0  0  0
    5.3564   -8.0122    7.7010 C   0  0  3  0  0  0  0  0  0  0  0  0
    4.4069   -7.7276    6.5913 C   0  0  0  0  0  0  0  0  0  0  0  0
    3.7786   -8.6089    5.7803 C   0  0  0  0  0  0  0  0  0  0  0  0
    2.8957   -8.1619    4.7964 O   0  3  0  0  0  0  0  0  0  0  0  0
    3.9732  -10.0744    5.8829 C   0  0  0  0  0  0  0  0  0  0  0  0
    3.1360  -10.8704    6.7311 O   0  0  0  0  0  0  0  0  0  0  0  0
    3.0289  -10.9852    5.2984 O   0  0  0  0  0  0  0  0  0  0  0  0
    6.6347   -7.9715    7.0957 O   0  0  0  0  0  0  0  0  0  0  0  0
    0.7328   -4.7464    2.0897 C   0  0  0  0  0  0  0  0  0  0  0  0
    0.0109   -3.5475    2.1038 C   0  0  0  0  0  0  0  0  0  0  0  0
   -0.8403   -3.2234    1.1257 N   0  3  0  0  0  0  0  0  0  0  0  0
   -1.5037   -2.0529    1.1939 F   0  0  0  0  0  0  0  0  0  0  0  0
   -1.0735   -4.0085    0.0997 N   0  0  0  0  0  0  0  0  0  0  0  0
   -0.4436   -5.1768    0.0081 C   0  0  0  0  0  0  0  0  0  0  0  0
    0.4758   -5.6155    0.9903 C   0  0  0  0  0  0  0  0  0  0  0  0
    1.0753   -6.8814    0.7804 C   0  0  0  0  0  0  0  0  0  0  0  0
    0.7925   -7.6577   -0.3542 C   0  0  0  0  0  0  0  0  0  0  0  0
    1.4593   -8.9477   -0.5399 C   0  0  0  0  0  0  0  0  0  0  0  0
    2.1649   -9.4087    0.3450 O   0  0  0  0  0  0  0  0  0  0  0  0
    1.1957   -9.6558   -1.8507 C   0  0  0  0  0  0  0  0  0  0  0  0
    1.3406  -10.8650   -1.9331 O   0  0  0  0  0  0  0  0  0  0  0  0
    0.7263   -8.7419   -2.9627 C   0  0  1  0  0  0  0  0  0  0  0  0
   -0.3016   -7.8340   -2.5116 O   0  0  0  0  0  0  0  0  0  0  0  0
   -0.0758   -7.1977   -1.3236 C   0  0  0  0  0  0  0  0  0  0  0  0
   -0.7030   -5.9730   -1.1098 C   0  0  0  0  0  0  0  0  0  0  0  0
   -1.5559   -5.5149   -2.0409 F   0  0  0  0  0  0  0  0  0  0  0  0
    1.8754   -8.0530   -3.6649 C   0  0  1  0  0  0  0  0  0  0  0  0
    2.8380   -8.9202   -4.2906 O   0  0  0  0  0  0  0  0  0  0  0  0
    1.5309   -6.8840   -4.4227 O   0  0  0  0  0  0  0  0  0  0  0  0
    2.3410   -6.7079   -3.3755 C   0  0  0  0  0  0  0  0  0  0  0  0
    2.2526   -6.0063   -2.3799 O   0  0  0  0  0  0  0  0  0  0  0  0
    4.6042   -2.1346    2.9478 C   0  0  0  0  0  0  0  0  0  0  0  0
    4.4994   -2.6509    1.8413 O   0  0  0  0  0  0  0  0  0  0  0  0
    5.9582   -1.7274    3.4961 C   0  0  0  0  0  0  0  0  0  0  0  0
    6.8537   -1.3872    2.7372 O   0  0  0  0  0  0  0  0  0  0  0  0
    6.0982   -1.8613    4.9853 C   0  0  3  0  0  0  0  0  0  0  0  0
    6.1072   -3.1783    5.3510 F   0  0  0  0  0  0  0  0  0  0  0  0
  1  2  1  0  0  0  0
  2  3  2  0  0  0  0
  3  4  1  0  0  0  0
  3 53  1  0  0  0  0
  4  5  1  0  0  0  0
  5  6  1  1  0  0  0
  5 49  1  0  0  0  0
  6  7  1  0  0  0  0
  7  8  2  0  0  0  0
  7 12  1  0  0  0  0
  8  9  1  0  0  0  0
  8 26  1  0  0  0  0
  9 10  1  0  0  0  0
 10 11  2  0  0  0  0
 10 21  1  0  0  0  0
 11 12  1  0  0  0  0
 11 13  1  0  0  0  0
 13 14  1  0  0  0  0
 13 19  1  0  0  0  0
 14 15  1  0  0  0  0
 15 16  2  0  0  0  0
 15 17  1  0  0  0  0
 17 18  1  0  0  0  0
 18 19  1  0  0  0  0
 18 25  1  0  0  0  0
 19 20  2  0  0  0  0
 20 21  1  0  0  0  0
 20 22  1  0  0  0  0
 22 23  1  0  0  0  0
 22 24  1  0  0  0  0
 23 24  1  0  0  0  0
 26 27  2  0  0  0  0
 26 32  1  0  0  0  0
 27 28  1  0  0  0  0
 28 29  1  0  0  0  0
 28 30  2  0  0  0  0
 30 31  1  0  0  0  0
 31 32  2  0  0  0  0
 31 42  1  0  0  0  0
 32 33  1  0  0  0  0
 33 34  2  0  0  0  0
 34 35  1  0  0  0  0
 34 41  1  0  0  0  0
 35 36  2  0  0  0  0
 35 37  1  0  0  0  0
 37 38  2  0  0  0  0
 39 37  1  1  0  0  0
 39 40  1  0  0  0  0
 39 44  1  0  0  0  0
 40 41  1  0  0  0  0
 41 42  2  0  0  0  0
 42 43  1  0  0  0  0
 44 45  1  6  0  0  0
 44 46  1  0  0  0  0
 44 47  1  0  0  0  0
 46 47  1  0  0  0  0
 47 48  2  0  0  0  0
 49 50  2  0  0  0  0
 49 51  1  0  0  0  0
 51 52  2  0  0  0  0
 51 53  1  0  0  0  0
 53 54  1  0  0  0  0
M  CHG  2  21   1  28   1
M  END
$$$$