
 OpenBabel11212020323D

 53 61  0  0  1  0  0  0  0  0999 V2000
    7.1622   -1.3147    5.1993 O   0  0  0  0  0  0  0  0  0  0  0  0
    6.8922   -0.0751    4.6730 C   0  0  0  0  0  0  0  0  0  0  0  0
    5.7246    0.2300    4.0950 C   0  0  0  0  0  0  0  0  0  0  0  0
    4.7370   -0.7285    3.9546 O   0  0  0  0  0  0  0  0  0  0  0  0
    3.4424   -0.2338    4.2545 C   0  0  2  0  0  0  0  0  0  0  0  0
    2.4679   -1.2932    4.1598 O   0  0  0  0  0  0  0  0  0  0  0  0
    2.5654   -2.3600    5.0404 C   0  0  0  0  0  0  0  0  0  0  0  0
    2.1029   -3.5913    4.7124 C   0  0  0  0  0  0  0  0  0  0  0  0
    2.2107   -4.6713    5.6052 O   0  0  0  0  0  0  0  0  0  0  0  0
    2.8305   -4.5111    6.8484 C   0  0  0  0  0  0  0  0  0  0  0  0
    3.2196   -3.2971    7.2735 C   0  0  0  0  0  0  0  0  0  0  0  0
    3.0994   -2.0763    6.4201 C   0  0  0  0  0  0  0  0  0  0  0  0
    3.8061   -3.0711    8.6362 C   0  0  3  0  0  0  0  0  0  0  0  0
    2.8867   -2.2578    9.3421 O   0  0  0  0  0  0  0  0  0  0  0  0
    3.1986   -1.9290   10.6243 C   0  0  0  0  0  0  0  0  0  0  0  0
    2.6801   -0.9747   11.1784 O   0  0  0  0  0  0  0  0  0  0  0  0
    4.1163   -2.7250   11.2241 O   0  0  0  0  0  0  0  0  0  0  0  0
    4.4620   -4.0444   10.7700 C   0  0  0  0  0  0  0  0  0  0  0  0
    3.9386   -4.3319    9.4023 C   0  0  0  0  0  0  0  0  0  0  0  0
    3.5688   -5.5352    8.9062 C   0  0  0  0  0  0  0  0  0  0  0  0
    3.0123   -5.6308    7.6334 O   0  3  0  0  0  0  0  0  0  0  0  0
    3.6820   -6.8142    9.6522 C   0  0  0  0  0  0  0  0  0  0  0  0
    2.5157   -7.6014    9.9262 O   0  0  0  0  0  0  0  0  0  0  0  0
    3.4914   -8.0687    8.9760 O   0  0  0  0  0  0  0  0  0  0  0  0
    1.3886   -3.8976    3.4192 C   0  0  0  0  0  0  0  0  0  0  0  0
    0.6013   -2.8981    2.8404 C   0  0  0  0  0  0  0  0  0  0  0  0
   -0.0678   -3.0980    1.7043 N   0  3  0  0  0  0  0  0  0  0  0  0
   -0.7786   -2.0811    1.1797 F   0  0  0  0  0  0  0  0  0  0  0  0
   -0.0862   -4.2573    1.0884 N   0  0  0  0  0  0  0  0  0  0  0  0
    0.6105   -5.2840    1.5791 C   0  0  0  0  0  0  0  0  0  0  0  0
    1.3926   -5.1542    2.7537 C   0  0  0  0  0  0  0  0  0  0  0  0
    2.1304   -6.2866    3.1675 C   0  0  0  0  0  0  0  0  0  0  0  0
    2.0757   -7.4995    2.4699 C   0  0  0  0  0  0  0  0  0  0  0  0
    2.8305   -8.6510    2.9610 C   0  0  0  0  0  0  0  0  0  0  0  0
    3.3614   -8.6053    4.0624 O   0  0  0  0  0  0  0  0  0  0  0  0
    2.8719   -9.8752    2.0746 C   0  0  0  0  0  0  0  0  0  0  0  0
    3.2785  -10.9358    2.5241 O   0  0  0  0  0  0  0  0  0  0  0  0
    2.3918   -9.6501    0.6547 C   0  0  1  0  0  0  0  0  0  0  0  0
    1.2710   -8.7521    0.5578 O   0  0  0  0  0  0  0  0  0  0  0  0
    1.3154   -7.6160    1.3244 C   0  0  0  0  0  0  0  0  0  0  0  0
    0.5452   -6.5185    0.8957 C   0  0  0  0  0  0  0  0  0  0  0  0
   -0.0992   -6.6036   -0.3605 N   0  0  0  0  0  0  0  0  0  0  0  0
    3.5229   -9.2955   -0.2859 C   0  0  1  0  0  0  0  0  0  0  0  0
    4.5761  -10.2665   -0.4063 O   0  0  0  0  0  0  0  0  0  0  0  0
    3.1458   -8.6509   -1.5091 O   0  0  0  0  0  0  0  0  0  0  0  0
    3.8737   -7.9370   -0.6540 C   0  0  0  0  0  0  0  0  0  0  0  0
    3.7015   -6.8728   -0.0971 O   0  0  0  0  0  0  0  0  0  0  0  0
    3.0471    0.8464    3.2683 C   0  0  0  0  0  0  0  0  0  0  0  0
    1.9910    0.8734    2.6509 O   0  0  0  0  0  0  0  0  0  0  0  0
    4.0989    1.9254    3.1499 C   0  0  0  0  0  0  0  0  0  0  0  0
    3.7828    3.0332    2.7516 O   0  0  0  0  0  0  0  0  0  0  0  0
    5.5177    1.6275    3.6085 C   0  0  0  0  0  0  0  0  0  0  0  0
    6.3855    2.4821    3.6237 O   0  0  0  0  0  0  0  0  0  0  0  0
  1  2  1  0  0  0  0
  2  3  2  0  0  0  0
  3  4  1  0  0  0  0
  3 52  1  0  0  0  0
  4  5  1  0  0  0  0
  5  6  1  6  0  0  0
  5 48  1  0  0  0  0
  6  7  1  0  0  0  0
  7  8  2  0  0  0  0
  7 12  1  0  0  0  0
  8  9  1  0  0  0  0
  8 25  1  0  0  0  0
  9 10  1  0  0  0  0
 10 11  2  0  0  0  0
 10 21  1  0  0  0  0
 11 12  1  0  0  0  0
 11 13  1  0  0  0  0
 13 14  1  0  0  0  0
 13 19  1  0  0  0  0
 14 15  1  0  0  0  0
 15 16  2  0  0  0  0
 15 17  1  0  0  0  0
 17 18  1  0  0  0  0
 18 19  1  0  0  0  0
 19 20  2  0  0  0  0
 20 21  1  0  0  0  0
 20 22  1  0  0  0  0
 22 23  1  0  0  0  0
 22 24  1  0  0  0  0
 23 24  1  0  0  0  0
 25 26  2  0  0  0  0
 25 31  1  0  0  0  0
 26 27  1  0  0  0  0
 27 28  1  0  0  0  0
 27 29  2  0  0  0  0
 29 30  1  0  0  0  0
 30 31  2  0  0  0  0
 30 41  1  0  0  0  0
 31 32  1  0  0  0  0
 32 33  2  0  0  0  0
 33 34  1  0  0  0  0
 33 40  1  0  0  0  0
 34 35  2  0  0  0  0
 34 36  1  0  0  0  0
 36 37  2  0  0  0  0
 38 36  1  1  0  0  0
 38 39  1  0  0  0  0
 38 43  1  0  0  0  0
 39 40  1  0  0  0  0
 40 41  2  0  0  0  0
 41 42  1  0  0  0  0
 43 44  1  6  0  0  0
 43 45  1  0  0  0  0
 43 46  1  0  0  0  0
 45 46  1  0  0  0  0
 46 47  2  0  0  0  0
 48 49  2  0  0  0  0
 48 50  1  0  0  0  0
 50 51  2  0  0  0  0
 50 52  1  0  0  0  0
 52 53  2  0  0  0  0
M  CHG  2  21   1  27   1
M  END
$$$$