
 OpenBabel11222001363D

 54 62  0  0  1  0  0  0  0  0999 V2000
    1.7690    7.4810   -2.9736 O   0  0  0  0  0  0  0  0  0  0  0  0
    1.6125    6.2410   -3.5341 C   0  0  0  0  0  0  0  0  0  0  0  0
    1.8946    5.1126   -2.8739 C   0  0  0  0  0  0  0  0  0  0  0  0
    2.4263    5.1363   -1.5985 O   0  0  0  0  0  0  0  0  0  0  0  0
    1.7945    4.2059   -0.7234 C   0  0  2  0  0  0  0  0  0  0  0  0
    2.3063    4.3073    0.6098 O   0  0  0  0  0  0  0  0  0  0  0  0
    2.1835    5.5337    1.2489 C   0  0  0  0  0  0  0  0  0  0  0  0
    3.0964    5.9169    2.1642 C   0  0  0  0  0  0  0  0  0  0  0  0
    3.0030    7.0865    2.9006 O   0  0  0  0  0  0  0  0  0  0  0  0
    1.9187    7.9206    2.6972 C   0  0  0  0  0  0  0  0  0  0  0  0
    0.9406    7.6355    1.8193 C   0  0  0  0  0  0  0  0  0  0  0  0
    0.9731    6.3947    0.9799 C   0  0  0  0  0  0  0  0  0  0  0  0
   -0.2106    8.5938    1.6229 C   0  0  3  0  0  0  0  0  0  0  0  0
   -1.4171    7.8781    1.8870 O   0  0  0  0  0  0  0  0  0  0  0  0
   -2.5905    8.5208    2.1091 C   0  0  0  0  0  0  0  0  0  0  0  0
   -3.6466    7.9064    2.1624 O   0  0  0  0  0  0  0  0  0  0  0  0
   -2.5514    9.8636    2.2894 O   0  0  0  0  0  0  0  0  0  0  0  0
   -1.3558   10.6288    2.3055 C   0  0  3  0  0  0  0  0  0  0  0  0
   -0.1635    9.7882    2.5118 C   0  0  0  0  0  0  0  0  0  0  0  0
    0.8533   10.0035    3.3756 C   0  0  0  0  0  0  0  0  0  0  0  0
    1.8755    9.0734    3.4364 N   0  0  0  0  0  0  0  0  0  0  0  0
    0.9724   11.1741    4.2731 C   0  0  0  0  0  0  0  0  0  0  0  0
    0.3601   11.1933    5.5716 O   0  0  0  0  0  0  0  0  0  0  0  0
    1.7956   11.1525    5.4529 O   0  0  0  0  0  0  0  0  0  0  0  0
   -1.2166   11.2939    1.0614 O   0  0  0  0  0  0  0  0  0  0  0  0
    4.2804    5.1047    2.4800 C   0  0  0  0  0  0  0  0  0  0  0  0
    4.1779    4.1558    3.5000 C   0  0  0  0  0  0  0  0  0  0  0  0
    5.2720    3.3651    3.7544 C   0  0  0  0  0  0  0  0  0  0  0  0
    5.1947    2.4547    4.7340 F   0  0  0  0  0  0  0  0  0  0  0  0
    6.4246    3.4419    3.0671 N   0  0  0  0  0  0  0  0  0  0  0  0
    6.5133    4.3679    2.0853 C   0  0  0  0  0  0  0  0  0  0  0  0
    5.4678    5.2544    1.7509 C   0  0  0  0  0  0  0  0  0  0  0  0
    5.5996    6.1994    0.7894 N   0  0  0  0  0  0  0  0  0  0  0  0
    6.7742    6.2859    0.1228 C   0  0  0  0  0  0  0  0  0  0  0  0
    6.9244    7.4090   -0.8226 C   0  0  0  0  0  0  0  0  0  0  0  0
    6.0543    8.2330   -1.0558 O   0  0  0  0  0  0  0  0  0  0  0  0
    8.2729    7.5180   -1.4921 C   0  0  0  0  0  0  0  0  0  0  0  0
    8.6704    8.5769   -1.9580 O   0  0  0  0  0  0  0  0  0  0  0  0
    9.0398    6.2211   -1.5641 C   0  0  1  0  0  0  0  0  0  0  0  0
    9.0192    5.4505   -0.3606 O   0  0  0  0  0  0  0  0  0  0  0  0
    7.8341    5.4235    0.3255 C   0  0  0  0  0  0  0  0  0  0  0  0
    7.6890    4.4437    1.3182 C   0  0  0  0  0  0  0  0  0  0  0  0
    8.8139    3.6527    1.6886 N   0  0  0  0  0  0  0  0  0  0  0  0
    8.5851    5.3936   -2.7226 C   0  0  1  0  0  0  0  0  0  0  0  0
    7.1891    5.0079   -2.7340 O   0  0  0  0  0  0  0  0  0  0  0  0
    9.1357    5.7733   -3.9823 O   0  0  0  0  0  0  0  0  0  0  0  0
    9.4772    4.5551   -3.5201 C   0  0  0  0  0  0  0  0  0  0  0  0
    9.2846    3.4617   -4.0075 O   0  0  0  0  0  0  0  0  0  0  0  0
    2.0245    2.7714   -1.1853 C   0  0  0  0  0  0  0  0  0  0  0  0
    2.1201    1.7890   -0.4624 O   0  0  0  0  0  0  0  0  0  0  0  0
    2.0414    2.6253   -2.6889 C   0  0  0  0  0  0  0  0  0  0  0  0
    2.3773    1.5741   -3.2116 O   0  0  0  0  0  0  0  0  0  0  0  0
    1.6501    3.8098   -3.5442 C   0  0  0  0  0  0  0  0  0  0  0  0
    1.1430    3.6775   -4.6444 O   0  0  0  0  0  0  0  0  0  0  0  0
  1  2  1  0  0  0  0
  2  3  2  0  0  0  0
  3  4  1  0  0  0  0
  3 53  1  0  0  0  0
  4  5  1  0  0  0  0
  5  6  1  1  0  0  0
  5 49  1  0  0  0  0
  6  7  1  0  0  0  0
  7  8  2  0  0  0  0
  7 12  1  0  0  0  0
  8  9  1  0  0  0  0
  8 26  1  0  0  0  0
  9 10  1  0  0  0  0
 10 11  2  0  0  0  0
 10 21  1  0  0  0  0
 11 12  1  0  0  0  0
 11 13  1  0  0  0  0
 13 14  1  0  0  0  0
 13 19  1  0  0  0  0
 14 15  1  0  0  0  0
 15 16  2  0  0  0  0
 15 17  1  0  0  0  0
 17 18  1  0  0  0  0
 18 19  1  0  0  0  0
 18 25  1  0  0  0  0
 19 20  2  0  0  0  0
 20 21  1  0  0  0  0
 20 22  1  0  0  0  0
 22 23  1  0  0  0  0
 22 24  1  0  0  0  0
 23 24  1  0  0  0  0
 26 27  2  0  0  0  0
 26 32  1  0  0  0  0
 27 28  1  0  0  0  0
 28 29  1  0  0  0  0
 28 30  2  0  0  0  0
 30 31  1  0  0  0  0
 31 32  2  0  0  0  0
 31 42  1  0  0  0  0
 32 33  1  0  0  0  0
 33 34  2  0  0  0  0
 34 35  1  0  0  0  0
 34 41  1  0  0  0  0
 35 36  2  0  0  0  0
 35 37  1  0  0  0  0
 37 38  2  0  0  0  0
 39 37  1  1  0  0  0
 39 40  1  0  0  0  0
 39 44  1  0  0  0  0
 40 41  1  0  0  0  0
 41 42  2  0  0  0  0
 42 43  1  0  0  0  0
 44 45  1  6  0  0  0
 44 46  1  0  0  0  0
 44 47  1  0  0  0  0
 46 47  1  0  0  0  0
 47 48  2  0  0  0  0
 49 50  2  0  0  0  0
 49 51  1  0  0  0  0
 51 52  2  0  0  0  0
 51 53  1  0  0  0  0
 53 54  2  0  0  0  0
M  END
$$$$