
 OpenBabel11212020183D

 53 61  0  0  1  0  0  0  0  0999 V2000
    2.0873   -4.1477   -4.0412 O   0  0  0  0  0  0  0  0  0  0  0  0
    2.4746   -2.9154   -3.5742 C   0  0  0  0  0  0  0  0  0  0  0  0
    2.4600   -2.5793   -2.2769 C   0  0  0  0  0  0  0  0  0  0  0  0
    1.9824   -3.4519   -1.3180 O   0  0  0  0  0  0  0  0  0  0  0  0
    2.6566   -3.4023   -0.0583 C   0  0  2  0  0  0  0  0  0  0  0  0
    2.1728   -4.4270    0.8377 O   0  0  0  0  0  0  0  0  0  0  0  0
    2.3085   -5.7606    0.4595 C   0  0  0  0  0  0  0  0  0  0  0  0
    1.8722   -6.7692    1.2503 C   0  0  0  0  0  0  0  0  0  0  0  0
    2.0078   -8.1191    0.8978 O   0  0  0  0  0  0  0  0  0  0  0  0
    2.6580   -8.4690   -0.2859 C   0  0  0  0  0  0  0  0  0  0  0  0
    3.1552   -7.5344   -1.1119 C   0  0  0  0  0  0  0  0  0  0  0  0
    2.9927   -6.0756   -0.8458 C   0  0  0  0  0  0  0  0  0  0  0  0
    3.8929   -7.8729   -2.3734 C   0  0  3  0  0  0  0  0  0  0  0  0
    5.2283   -7.4272   -2.2124 O   0  0  0  0  0  0  0  0  0  0  0  0
    6.0846   -7.6369   -3.2466 C   0  0  0  0  0  0  0  0  0  0  0  0
    7.1059   -6.9822   -3.3742 O   0  0  0  0  0  0  0  0  0  0  0  0
    5.7272   -8.6180   -4.1127 O   0  0  0  0  0  0  0  0  0  0  0  0
    4.7470   -9.6314   -3.8290 C   0  0  0  0  0  0  0  0  0  0  0  0
    3.9576   -9.3351   -2.5980 C   0  0  0  0  0  0  0  0  0  0  0  0
    3.4162  -10.2325   -1.7414 C   0  0  0  0  0  0  0  0  0  0  0  0
    2.7781   -9.8071   -0.5808 O   0  3  0  0  0  0  0  0  0  0  0  0
    3.4886  -11.6970   -1.9498 C   0  0  0  0  0  0  0  0  0  0  0  0
    4.5635  -12.4682   -1.4007 O   0  0  0  0  0  0  0  0  0  0  0  0
    3.2318  -12.6059   -0.8671 O   0  0  0  0  0  0  0  0  0  0  0  0
    1.3227   -6.5702    2.6150 C   0  0  0  0  0  0  0  0  0  0  0  0
    2.2371   -6.5929    3.6566 C   0  0  0  0  0  0  0  0  0  0  0  0
    1.8782   -6.4638    4.9376 N   0  0  0  0  0  0  0  0  0  0  0  0
    0.5594   -6.2736    5.2442 N   0  0  0  0  0  0  0  0  0  0  0  0
   -0.4090   -6.2316    4.3131 C   0  0  0  0  0  0  0  0  0  0  0  0
   -0.0485   -6.3896    2.9469 C   0  0  0  0  0  0  0  0  0  0  0  0
   -1.0736   -6.3725    1.9805 C   0  0  0  0  0  0  0  0  0  0  0  0
   -2.4112   -6.1790    2.3458 C   0  0  0  0  0  0  0  0  0  0  0  0
   -3.4613   -6.2624    1.3212 C   0  0  0  0  0  0  0  0  0  0  0  0
   -3.1961   -6.5628    0.1679 O   0  0  0  0  0  0  0  0  0  0  0  0
   -4.8781   -5.9965    1.7764 C   0  0  0  0  0  0  0  0  0  0  0  0
   -5.8332   -6.3890    1.1241 O   0  0  0  0  0  0  0  0  0  0  0  0
   -4.9669   -5.2170    3.0648 C   0  0  1  0  0  0  0  0  0  0  0  0
   -4.0555   -5.7142    4.0608 O   0  0  0  0  0  0  0  0  0  0  0  0
   -2.7613   -5.9585    3.6715 C   0  0  0  0  0  0  0  0  0  0  0  0
   -1.7683   -6.0300    4.6756 C   0  0  0  0  0  0  0  0  0  0  0  0
   -2.2049   -5.8248    6.0876 C   0  0  0  0  0  0  0  0  0  0  0  0
   -1.6676   -6.3672    7.1893 C   0  0  0  0  0  0  0  0  0  0  0  0
   -4.8350   -3.7252    2.9084 C   0  0  1  0  0  0  0  0  0  0  0  0
   -4.9250   -2.9458    4.1183 O   0  0  0  0  0  0  0  0  0  0  0  0
   -3.8417   -3.2612    1.9949 O   0  0  0  0  0  0  0  0  0  0  0  0
   -5.1327   -3.0386    1.6524 C   0  0  0  0  0  0  0  0  0  0  0  0
   -5.7177   -3.3698    0.6517 O   0  0  0  0  0  0  0  0  0  0  0  0
    2.4528   -2.0204    0.5362 C   0  0  0  0  0  0  0  0  0  0  0  0
    2.0311   -1.7714    1.6543 O   0  0  0  0  0  0  0  0  0  0  0  0
    2.8660   -0.9227   -0.4173 C   0  0  0  0  0  0  0  0  0  0  0  0
    3.2078    0.1660    0.0146 O   0  0  0  0  0  0  0  0  0  0  0  0
    2.9149   -1.2098   -1.9061 C   0  0  0  0  0  0  0  0  0  0  0  0
    3.3255   -0.3919   -2.7116 O   0  0  0  0  0  0  0  0  0  0  0  0
  1  2  1  0  0  0  0
  2  3  2  0  0  0  0
  3  4  1  0  0  0  0
  3 52  1  0  0  0  0
  4  5  1  0  0  0  0
  5  6  1  1  0  0  0
  5 48  1  0  0  0  0
  6  7  1  0  0  0  0
  7  8  2  0  0  0  0
  7 12  1  0  0  0  0
  8  9  1  0  0  0  0
  8 25  1  0  0  0  0
  9 10  1  0  0  0  0
 10 11  2  0  0  0  0
 10 21  1  0  0  0  0
 11 12  1  0  0  0  0
 11 13  1  0  0  0  0
 13 14  1  0  0  0  0
 13 19  1  0  0  0  0
 14 15  1  0  0  0  0
 15 16  2  0  0  0  0
 15 17  1  0  0  0  0
 17 18  1  0  0  0  0
 18 19  1  0  0  0  0
 19 20  2  0  0  0  0
 20 21  1  0  0  0  0
 20 22  1  0  0  0  0
 22 23  1  0  0  0  0
 22 24  1  0  0  0  0
 23 24  1  0  0  0  0
 25 26  2  0  0  0  0
 25 30  1  0  0  0  0
 26 27  1  0  0  0  0
 27 28  2  0  0  0  0
 28 29  1  0  0  0  0
 29 30  2  0  0  0  0
 29 40  1  0  0  0  0
 30 31  1  0  0  0  0
 31 32  2  0  0  0  0
 32 33  1  0  0  0  0
 32 39  1  0  0  0  0
 33 34  2  0  0  0  0
 33 35  1  0  0  0  0
 35 36  2  0  0  0  0
 37 35  1  6  0  0  0
 37 38  1  0  0  0  0
 37 43  1  0  0  0  0
 38 39  1  0  0  0  0
 39 40  2  0  0  0  0
 40 41  1  0  0  0  0
 41 42  2  0  0  0  0
 43 44  1  1  0  0  0
 43 45  1  0  0  0  0
 43 46  1  0  0  0  0
 45 46  1  0  0  0  0
 46 47  2  0  0  0  0
 48 49  2  0  0  0  0
 48 50  1  0  0  0  0
 50 51  2  0  0  0  0
 50 52  1  0  0  0  0
 52 53  2  0  0  0  0
M  CHG  1  21   1
M  END
$$$$