
 OpenBabel11262011193D

 53 62  0  0  1  0  0  0  0  0999 V2000
   18.9024    1.8853    0.3274 F   0  0  0  0  0  0  0  0  0  0  0  0
   18.7179    0.5617    0.4879 C   0  0  0  0  0  0  0  0  0  0  0  0
   17.7588   -0.0952   -0.1690 C   0  0  0  0  0  0  0  0  0  0  0  0
   16.9086    0.5733   -1.0433 O   0  0  0  0  0  0  0  0  0  0  0  0
   16.1266   -0.2522   -1.9029 C   0  0  2  0  0  0  0  0  0  0  0  0
   15.1106    0.4965   -2.5904 O   0  0  0  0  0  0  0  0  0  0  0  0
   15.4028    1.1287   -3.7852 C   0  0  0  0  0  0  0  0  0  0  0  0
   14.4022    1.4967   -4.6193 C   0  0  0  0  0  0  0  0  0  0  0  0
   14.6316    2.2534   -5.7609 O   0  0  0  0  0  0  0  0  0  0  0  0
   15.9225    2.5659   -6.1359 C   0  0  0  0  0  0  0  0  0  0  0  0
   16.9919    2.1842   -5.4189 C   0  0  0  0  0  0  0  0  0  0  0  0
   16.8471    1.4490   -4.1227 C   0  0  0  0  0  0  0  0  0  0  0  0
   18.3823    2.5473   -5.8856 C   0  0  3  0  0  0  0  0  0  0  0  0
   19.1125    1.3168   -6.1643 N   0  0  0  0  0  0  0  0  0  0  0  0
   20.3689    1.4390   -6.6654 C   0  0  0  0  0  0  0  0  0  0  0  0
   21.2984    0.5910   -6.4132 N   0  0  0  0  0  0  0  0  0  0  0  0
   20.5724    2.4536   -7.5281 N   0  0  0  0  0  0  0  0  0  0  0  0
   19.8222    3.6845   -7.5510 C   0  0  0  0  0  0  0  0  0  0  0  0
   18.4181    3.3761   -7.1431 C   0  0  0  0  0  0  0  0  0  0  0  0
   17.2847    3.7353   -7.7860 C   0  0  0  0  0  0  0  0  0  0  0  0
   16.0685    3.2996   -7.2819 N   0  0  0  0  0  0  0  0  0  0  0  0
   17.2162    4.5730   -9.0052 C   0  0  0  0  0  0  0  0  0  0  0  0
   16.6161    5.8808   -8.9644 O   0  0  0  0  0  0  0  0  0  0  0  0
   18.0296    5.7416   -9.1956 O   0  0  0  0  0  0  0  0  0  0  0  0
   12.9616    1.1731   -4.4226 C   0  0  0  0  0  0  0  0  0  0  0  0
   12.3951    1.3446   -3.1627 C   0  0  0  0  0  0  0  0  0  0  0  0
   11.1003    1.0970   -2.9523 N   0  3  0  0  0  0  0  0  0  0  0  0
   10.5969    1.2586   -1.7138 F   0  0  0  0  0  0  0  0  0  0  0  0
   10.2830    0.7126   -3.9136 N   0  0  0  0  0  0  0  0  0  0  0  0
   10.7530    0.5274   -5.1500 C   0  0  0  0  0  0  0  0  0  0  0  0
   12.1081    0.7347   -5.4729 C   0  0  0  0  0  0  0  0  0  0  0  0
   12.5114    0.4896   -6.8167 C   0  0  0  0  0  0  0  0  0  0  0  0
   11.5993    0.0810   -7.8002 C   0  0  0  0  0  0  0  0  0  0  0  0
   10.2763   -0.1406   -7.4623 C   0  0  0  0  0  0  0  0  0  0  0  0
    9.8719    0.1064   -6.1508 C   0  0  0  0  0  0  0  0  0  0  0  0
    8.5791   -0.0716   -5.8335 F   0  0  0  0  0  0  0  0  0  0  0  0
    9.3341   -0.5780   -8.3579 O   0  0  0  0  0  0  0  0  0  0  0  0
    9.8839   -1.2256   -9.5319 C   0  0  1  0  0  0  0  0  0  0  0  0
   10.9745   -0.5055  -10.1978 C   0  0  0  0  0  0  0  0  0  0  0  0
   11.0157   -0.2540  -11.3869 O   0  0  0  0  0  0  0  0  0  0  0  0
   12.0304   -0.0769   -9.2013 C   0  0  0  0  0  0  0  0  0  0  0  0
   13.1807    0.1480   -9.5375 O   0  0  0  0  0  0  0  0  0  0  0  0
   10.0538   -2.6188   -9.4607 O   0  0  0  0  0  0  0  0  0  0  0  0
    9.0161   -2.1090  -10.3651 C   0  0  1  0  0  0  0  0  0  0  0  0
    7.6337   -2.0043   -9.8222 O   0  0  0  0  0  0  0  0  0  0  0  0
    7.9978   -3.1177  -10.4121 C   0  0  0  0  0  0  0  0  0  0  0  0
    7.5159   -3.7889  -11.2917 O   0  0  0  0  0  0  0  0  0  0  0  0
   15.3604   -1.2534   -1.0681 C   0  0  0  0  0  0  0  0  0  0  0  0
   14.1444   -1.3383   -0.9680 O   0  0  0  0  0  0  0  0  0  0  0  0
   16.3031   -2.1486   -0.3194 C   0  0  0  0  0  0  0  0  0  0  0  0
   16.0313   -3.3260   -0.1703 O   0  0  0  0  0  0  0  0  0  0  0  0
   17.6150   -1.5475    0.1473 C   0  0  0  0  0  0  0  0  0  0  0  0
   18.4610   -2.2138    0.7153 O   0  0  0  0  0  0  0  0  0  0  0  0
  1  2  1  0  0  0  0
  2  3  2  0  0  0  0
  3  4  1  0  0  0  0
  3 52  1  0  0  0  0
  4  5  1  0  0  0  0
  5  6  1  1  0  0  0
  5 48  1  0  0  0  0
  6  7  1  0  0  0  0
  7  8  2  0  0  0  0
  7 12  1  0  0  0  0
  8  9  1  0  0  0  0
  8 25  1  0  0  0  0
  9 10  1  0  0  0  0
 10 11  2  0  0  0  0
 10 21  1  0  0  0  0
 11 12  1  0  0  0  0
 11 13  1  0  0  0  0
 13 14  1  0  0  0  0
 13 19  1  0  0  0  0
 14 15  1  0  0  0  0
 15 16  2  0  0  0  0
 15 17  1  0  0  0  0
 17 18  1  0  0  0  0
 18 19  1  0  0  0  0
 19 20  2  0  0  0  0
 20 21  1  0  0  0  0
 20 22  1  0  0  0  0
 22 23  1  0  0  0  0
 22 24  1  0  0  0  0
 23 24  1  0  0  0  0
 25 26  2  0  0  0  0
 25 31  1  0  0  0  0
 26 27  1  0  0  0  0
 27 28  1  0  0  0  0
 27 29  2  0  0  0  0
 29 30  1  0  0  0  0
 30 31  2  0  0  0  0
 30 35  1  0  0  0  0
 31 32  1  0  0  0  0
 32 33  2  0  0  0  0
 33 34  1  0  0  0  0
 33 41  1  0  0  0  0
 34 35  2  0  0  0  0
 34 37  1  0  0  0  0
 35 36  1  0  0  0  0
 38 37  1  1  0  0  0
 38 39  1  0  0  0  0
 38 43  1  0  0  0  0
 38 44  1  0  0  0  0
 39 40  2  0  0  0  0
 39 41  1  0  0  0  0
 41 42  2  0  0  0  0
 44 43  1  1  0  0  0
 44 45  1  0  0  0  0
 44 46  1  0  0  0  0
 45 46  1  0  0  0  0
 46 47  2  0  0  0  0
 48 49  2  0  0  0  0
 48 50  1  0  0  0  0
 50 51  2  0  0  0  0
 50 52  1  0  0  0  0
 52 53  2  0  0  0  0
M  CHG  1  27   1
M  END
$$$$