
 OpenBabel11212022333D

 54 62  0  0  1  0  0  0  0  0999 V2000
    0.7775    5.1224   -6.5556 O   0  0  0  0  0  0  0  0  0  0  0  0
    1.4722    3.9421   -6.4947 C   0  0  0  0  0  0  0  0  0  0  0  0
    2.3736    3.6828   -5.5400 C   0  0  0  0  0  0  0  0  0  0  0  0
    2.7161    4.6339   -4.6081 O   0  0  0  0  0  0  0  0  0  0  0  0
    3.0850    4.2058   -3.3143 C   0  0  2  0  0  0  0  0  0  0  0  0
    4.2069    5.0079   -2.8338 O   0  0  0  0  0  0  0  0  0  0  0  0
    4.0371    6.3868   -2.7362 C   0  0  0  0  0  0  0  0  0  0  0  0
    5.0838    7.2284   -2.8923 C   0  0  0  0  0  0  0  0  0  0  0  0
    4.9705    8.6212   -2.8049 O   0  0  0  0  0  0  0  0  0  0  0  0
    3.7120    9.1980   -2.5653 C   0  0  0  0  0  0  0  0  0  0  0  0
    2.6304    8.4265   -2.3425 C   0  0  0  0  0  0  0  0  0  0  0  0
    2.6744    6.9264   -2.3930 C   0  0  0  0  0  0  0  0  0  0  0  0
    1.2663    9.0101   -2.1069 C   0  0  3  0  0  0  0  0  0  0  0  0
    0.8335    8.6388   -0.8124 O   0  0  0  0  0  0  0  0  0  0  0  0
   -0.4354    9.0284   -0.4972 C   0  0  0  0  0  0  0  0  0  0  0  0
   -1.0637    8.5055    0.4063 O   0  0  0  0  0  0  0  0  0  0  0  0
   -0.9485    9.9970   -1.2978 O   0  0  0  0  0  0  0  0  0  0  0  0
   -0.0885   11.0016   -1.8251 C   0  0  3  0  0  0  0  0  0  0  0  0
    1.2794   10.4863   -2.1148 C   0  0  0  0  0  0  0  0  0  0  0  0
    2.3933   11.2129   -2.3531 C   0  0  0  0  0  0  0  0  0  0  0  0
    3.6101   10.5778   -2.5797 O   0  3  0  0  0  0  0  0  0  0  0  0
    2.4019   12.6963   -2.3772 C   0  0  0  0  0  0  0  0  0  0  0  0
    2.6758   13.4496   -1.1887 O   0  0  0  0  0  0  0  0  0  0  0  0
    3.6360   13.4248   -2.2628 O   0  0  0  0  0  0  0  0  0  0  0  0
   -0.5863   11.4020   -3.0873 O   0  0  0  0  0  0  0  0  0  0  0  0
    6.4424    6.7121   -3.1906 C   0  0  0  0  0  0  0  0  0  0  0  0
    7.3040    6.4237   -2.1332 C   0  0  0  0  0  0  0  0  0  0  0  0
    8.4892    5.8415   -2.3575 N   0  3  0  0  0  0  0  0  0  0  0  0
    9.3090    5.5938   -1.3172 F   0  0  0  0  0  0  0  0  0  0  0  0
    8.8791    5.4662   -3.5612 N   0  0  0  0  0  0  0  0  0  0  0  0
    8.0802    5.6696   -4.6135 C   0  0  0  0  0  0  0  0  0  0  0  0
    6.8505    6.3437   -4.4904 C   0  0  0  0  0  0  0  0  0  0  0  0
    6.0879    6.5776   -5.6589 C   0  0  0  0  0  0  0  0  0  0  0  0
    6.4889    6.0566   -6.8963 C   0  0  0  0  0  0  0  0  0  0  0  0
    5.6956    6.3179   -8.1026 C   0  0  0  0  0  0  0  0  0  0  0  0
    4.6839    6.9969   -8.0545 O   0  0  0  0  0  0  0  0  0  0  0  0
    6.2360    5.7314   -9.3863 C   0  0  0  0  0  0  0  0  0  0  0  0
    6.0503    6.2909  -10.4543 O   0  0  0  0  0  0  0  0  0  0  0  0
    7.0423    4.4749   -9.1742 C   0  0  1  0  0  0  0  0  0  0  0  0
    8.0268    4.6378   -8.1311 O   0  0  0  0  0  0  0  0  0  0  0  0
    7.6352    5.2888   -6.9956 C   0  0  0  0  0  0  0  0  0  0  0  0
    8.4422    5.1600   -5.8632 C   0  0  0  0  0  0  0  0  0  0  0  0
    9.5958    4.4807   -5.9640 F   0  0  0  0  0  0  0  0  0  0  0  0
    6.1626    3.2844   -8.9171 C   0  0  1  0  0  0  0  0  0  0  0  0
    5.2840    3.3386   -7.7651 O   0  0  0  0  0  0  0  0  0  0  0  0
    5.4747    2.7341  -10.1864 O   0  0  0  0  0  0  0  0  0  0  0  0
    6.3619    2.0375   -9.5236 C   0  0  0  0  0  0  0  0  0  0  0  0
    6.9330    0.9207   -9.5218 N   0  0  0  0  0  0  0  0  0  0  0  0
    3.5179    2.7673   -3.0693 C   0  0  0  0  0  0  0  0  0  0  0  0
    3.7943    2.3241   -1.9620 O   0  0  0  0  0  0  0  0  0  0  0  0
    3.6635    1.9225   -4.3052 C   0  0  0  0  0  0  0  0  0  0  0  0
    4.3019    0.8833   -4.2528 O   0  0  0  0  0  0  0  0  0  0  0  0
    3.0810    2.3842   -5.6149 C   0  0  0  0  0  0  0  0  0  0  0  0
    3.2683    1.7810   -6.6606 O   0  0  0  0  0  0  0  0  0  0  0  0
  1  2  1  0  0  0  0
  2  3  2  0  0  0  0
  3  4  1  0  0  0  0
  3 53  1  0  0  0  0
  4  5  1  0  0  0  0
  5  6  1  6  0  0  0
  5 49  1  0  0  0  0
  6  7  1  0  0  0  0
  7  8  2  0  0  0  0
  7 12  1  0  0  0  0
  8  9  1  0  0  0  0
  8 26  1  0  0  0  0
  9 10  1  0  0  0  0
 10 11  2  0  0  0  0
 10 21  1  0  0  0  0
 11 12  1  0  0  0  0
 11 13  1  0  0  0  0
 13 14  1  0  0  0  0
 13 19  1  0  0  0  0
 14 15  1  0  0  0  0
 15 16  2  0  0  0  0
 15 17  1  0  0  0  0
 17 18  1  0  0  0  0
 18 19  1  0  0  0  0
 18 25  1  0  0  0  0
 19 20  2  0  0  0  0
 20 21  1  0  0  0  0
 20 22  1  0  0  0  0
 22 23  1  0  0  0  0
 22 24  1  0  0  0  0
 23 24  1  0  0  0  0
 26 27  2  0  0  0  0
 26 32  1  0  0  0  0
 27 28  1  0  0  0  0
 28 29  1  0  0  0  0
 28 30  2  0  0  0  0
 30 31  1  0  0  0  0
 31 32  2  0  0  0  0
 31 42  1  0  0  0  0
 32 33  1  0  0  0  0
 33 34  2  0  0  0  0
 34 35  1  0  0  0  0
 34 41  1  0  0  0  0
 35 36  2  0  0  0  0
 35 37  1  0  0  0  0
 37 38  2  0  0  0  0
 39 37  1  1  0  0  0
 39 40  1  0  0  0  0
 39 44  1  0  0  0  0
 40 41  1  0  0  0  0
 41 42  2  0  0  0  0
 42 43  1  0  0  0  0
 44 45  1  1  0  0  0
 44 46  1  0  0  0  0
 44 47  1  0  0  0  0
 46 47  1  0  0  0  0
 47 48  2  0  0  0  0
 49 50  2  0  0  0  0
 49 51  1  0  0  0  0
 51 52  2  0  0  0  0
 51 53  1  0  0  0  0
 53 54  2  0  0  0  0
M  CHG  2  21   1  28   1
M  END
$$$$