
 OpenBabel11222022403D

 54 63  0  0  1  0  0  0  0  0999 V2000
   11.5253   -9.0516  -12.1061 O   0  0  0  0  0  0  0  0  0  0  0  0
   11.1715   -7.7297  -12.0115 C   0  0  0  0  0  0  0  0  0  0  0  0
   10.0955   -7.3088  -11.3363 C   0  0  0  0  0  0  0  0  0  0  0  0
    9.2516   -8.1951  -10.6769 O   0  0  0  0  0  0  0  0  0  0  0  0
    8.7196   -7.6445   -9.4736 C   0  0  2  0  0  0  0  0  0  0  0  0
    7.9341   -8.6295   -8.7582 O   0  0  0  0  0  0  0  0  0  0  0  0
    8.6135   -9.4852   -7.9006 C   0  0  0  0  0  0  0  0  0  0  0  0
    8.0012  -10.0617   -6.8351 C   0  0  0  0  0  0  0  0  0  0  0  0
    8.7257  -10.8742   -5.9410 O   0  0  0  0  0  0  0  0  0  0  0  0
   10.0931  -11.1053   -6.1226 C   0  0  0  0  0  0  0  0  0  0  0  0
   10.7315  -10.6604   -7.2181 C   0  0  0  0  0  0  0  0  0  0  0  0
   10.0555   -9.8023   -8.2350 C   0  0  0  0  0  0  0  0  0  0  0  0
   12.1720  -10.9916   -7.4971 C   0  0  3  0  0  0  0  0  0  0  0  0
   12.8988   -9.7949   -7.7079 O   0  0  0  0  0  0  0  0  0  0  0  0
   14.1746  -10.0040   -8.1455 C   0  0  0  0  0  0  0  0  0  0  0  0
   14.7763   -9.1793   -8.8099 O   0  0  0  0  0  0  0  0  0  0  0  0
   14.6785  -11.2239   -7.8228 O   0  0  0  0  0  0  0  0  0  0  0  0
   14.2884  -11.7826   -6.5743 C   0  0  3  0  0  0  0  0  0  0  0  0
   12.8183  -11.6550   -6.3438 C   0  0  0  0  0  0  0  0  0  0  0  0
   12.1342  -12.0371   -5.2416 C   0  0  0  0  0  0  0  0  0  0  0  0
   10.7652  -11.8162   -5.1489 O   0  3  0  0  0  0  0  0  0  0  0  0
   12.7665  -12.6751   -4.0633 C   0  0  0  0  0  0  0  0  0  0  0  0
   13.2632  -11.8839   -2.9772 O   0  0  0  0  0  0  0  0  0  0  0  0
   12.0829  -12.6903   -2.7973 O   0  0  0  0  0  0  0  0  0  0  0  0
   14.5365  -13.1740   -6.6092 O   0  0  0  0  0  0  0  0  0  0  0  0
    6.5193   -9.9656   -6.5228 C   0  0  0  0  0  0  0  0  0  0  0  0
    5.6024   -9.9054   -7.5876 C   0  0  0  0  0  0  0  0  0  0  0  0
    4.2764   -9.9270   -7.3770 N   0  3  0  0  0  0  0  0  0  0  0  0
    3.4493   -9.8392   -8.4376 F   0  0  0  0  0  0  0  0  0  0  0  0
    3.7389  -10.0573   -6.1596 C   0  0  0  0  0  0  0  0  0  0  0  0
    4.5560  -10.1379   -5.0363 C   0  0  0  0  0  0  0  0  0  0  0  0
    5.9658  -10.0480   -5.1990 C   0  0  0  0  0  0  0  0  0  0  0  0
    6.7146  -10.0323   -3.9990 C   0  0  0  0  0  0  0  0  0  0  0  0
    6.1181  -10.1903   -2.7321 C   0  0  0  0  0  0  0  0  0  0  0  0
    4.7518  -10.3759   -2.6081 C   0  0  0  0  0  0  0  0  0  0  0  0
    3.9781  -10.3102   -3.7611 C   0  0  0  0  0  0  0  0  0  0  0  0
    2.6463  -10.4400   -3.6668 F   0  0  0  0  0  0  0  0  0  0  0  0
    4.1332  -10.6124   -1.4065 O   0  0  0  0  0  0  0  0  0  0  0  0
    5.0189  -11.1259   -0.3760 C   0  0  1  0  0  0  0  0  0  0  0  0
    6.2751  -10.3843   -0.1915 C   0  0  0  0  0  0  0  0  0  0  0  0
    6.7719  -10.0670    0.8710 O   0  0  0  0  0  0  0  0  0  0  0  0
    6.9653  -10.1876   -1.5292 C   0  0  0  0  0  0  0  0  0  0  0  0
    8.1806  -10.1235   -1.6429 O   0  0  0  0  0  0  0  0  0  0  0  0
    4.4184  -11.7023    0.7524 O   0  0  0  0  0  0  0  0  0  0  0  0
    5.1198  -12.6061   -0.1509 C   0  0  1  0  0  0  0  0  0  0  0  0
    4.3623  -13.2416   -1.2326 O   0  0  0  0  0  0  0  0  0  0  0  0
    4.4445  -13.8864   -0.0794 C   0  0  0  0  0  0  0  0  0  0  0  0
    4.8507  -14.9978    0.1499 O   0  0  0  0  0  0  0  0  0  0  0  0
    7.8354   -6.4398   -9.7441 C   0  0  0  0  0  0  0  0  0  0  0  0
    6.8343   -6.1549   -9.1022 O   0  0  0  0  0  0  0  0  0  0  0  0
    8.3872   -5.5648  -10.8474 C   0  0  0  0  0  0  0  0  0  0  0  0
    7.6975   -4.7164  -11.3811 O   0  0  0  0  0  0  0  0  0  0  0  0
    9.8015   -5.8480  -11.3125 C   0  0  0  0  0  0  0  0  0  0  0  0
   10.6123   -4.9670  -11.5216 O   0  0  0  0  0  0  0  0  0  0  0  0
  1  2  1  0  0  0  0
  2  3  2  0  0  0  0
  3  4  1  0  0  0  0
  3 53  1  0  0  0  0
  4  5  1  0  0  0  0
  5  6  1  6  0  0  0
  5 49  1  0  0  0  0
  6  7  1  0  0  0  0
  7  8  2  0  0  0  0
  7 12  1  0  0  0  0
  8  9  1  0  0  0  0
  8 26  1  0  0  0  0
  9 10  1  0  0  0  0
 10 11  2  0  0  0  0
 10 21  1  0  0  0  0
 11 12  1  0  0  0  0
 11 13  1  0  0  0  0
 13 14  1  0  0  0  0
 13 19  1  0  0  0  0
 14 15  1  0  0  0  0
 15 16  2  0  0  0  0
 15 17  1  0  0  0  0
 17 18  1  0  0  0  0
 18 19  1  0  0  0  0
 18 25  1  0  0  0  0
 19 20  2  0  0  0  0
 20 21  1  0  0  0  0
 20 22  1  0  0  0  0
 22 23  1  0  0  0  0
 22 24  1  0  0  0  0
 23 24  1  0  0  0  0
 26 27  2  0  0  0  0
 26 32  1  0  0  0  0
 27 28  1  0  0  0  0
 28 29  1  0  0  0  0
 28 30  2  0  0  0  0
 30 31  1  0  0  0  0
 31 32  2  0  0  0  0
 31 36  1  0  0  0  0
 32 33  1  0  0  0  0
 33 34  2  0  0  0  0
 34 35  1  0  0  0  0
 34 42  1  0  0  0  0
 35 36  2  0  0  0  0
 35 38  1  0  0  0  0
 36 37  1  0  0  0  0
 39 38  1  6  0  0  0
 39 40  1  0  0  0  0
 39 44  1  0  0  0  0
 39 45  1  0  0  0  0
 40 41  2  0  0  0  0
 40 42  1  0  0  0  0
 42 43  2  0  0  0  0
 45 44  1  1  0  0  0
 45 46  1  0  0  0  0
 45 47  1  0  0  0  0
 46 47  1  0  0  0  0
 47 48  2  0  0  0  0
 49 50  2  0  0  0  0
 49 51  1  0  0  0  0
 51 52  2  0  0  0  0
 51 53  1  0  0  0  0
 53 54  2  0  0  0  0
M  CHG  2  21   1  28   1
M  END
$$$$