
 OpenBabel11232015183D

 53 61  0  0  1  0  0  0  0  0999 V2000
    3.4981   -6.5386    5.6628 O   0  0  0  0  0  0  0  0  0  0  0  0
    2.5188   -5.5814    5.7238 C   0  0  0  0  0  0  0  0  0  0  0  0
    2.2587   -4.7365    4.7191 C   0  0  0  0  0  0  0  0  0  0  0  0
    2.9793   -4.7592    3.5338 O   0  0  0  0  0  0  0  0  0  0  0  0
    2.2206   -4.3177    2.4013 C   0  0  2  0  0  0  0  0  0  0  0  0
    2.9247   -4.5269    1.1563 O   0  0  0  0  0  0  0  0  0  0  0  0
    3.0754   -5.8481    0.7403 C   0  0  0  0  0  0  0  0  0  0  0  0
    3.1518   -6.1647   -0.5719 C   0  0  0  0  0  0  0  0  0  0  0  0
    3.3201   -7.4643   -1.0372 O   0  0  0  0  0  0  0  0  0  0  0  0
    3.3532   -8.5133   -0.1279 C   0  0  0  0  0  0  0  0  0  0  0  0
    3.3236   -8.2966    1.1943 C   0  0  0  0  0  0  0  0  0  0  0  0
    3.2233   -6.9357    1.7880 C   0  0  0  0  0  0  0  0  0  0  0  0
    3.3499   -9.4788    2.1006 C   0  0  0  0  0  0  0  0  0  0  0  0
    3.3862   -9.3207    3.3853 N   0  0  0  0  0  0  0  0  0  0  0  0
    3.4154  -10.4527    4.1454 C   0  0  0  0  0  0  0  0  0  0  0  0
    3.5450  -10.2410    5.4023 N   0  0  0  0  0  0  0  0  0  0  0  0
    3.3315  -11.7446    3.7209 N   0  0  0  0  0  0  0  0  0  0  0  0
    3.2863  -11.9332    2.4458 C   0  0  0  0  0  0  0  0  0  0  0  0
    3.3239  -10.8288    1.4752 C   0  0  0  0  0  0  0  0  0  0  0  0
    3.3434  -10.9412    0.1305 C   0  0  0  0  0  0  0  0  0  0  0  0
    3.4046   -9.7801   -0.6403 N   0  0  0  0  0  0  0  0  0  0  0  0
    3.3118  -12.2164   -0.6166 C   0  0  3  0  0  0  0  0  0  0  0  0
    3.2730  -12.1675   -2.0440 N   0  0  0  0  0  0  0  0  0  0  0  0
    2.2102  -12.4731   -1.4751 N   0  0  0  0  0  0  0  0  0  0  0  0
    3.0803   -5.1705   -1.6560 C   0  0  0  0  0  0  0  0  0  0  0  0
    4.2695   -4.6113   -2.1097 C   0  0  0  0  0  0  0  0  0  0  0  0
    4.2577   -3.6815   -3.0695 N   0  3  0  0  0  0  0  0  0  0  0  0
    5.4182   -3.1096   -3.4436 F   0  0  0  0  0  0  0  0  0  0  0  0
    3.1472   -3.2838   -3.6619 N   0  0  0  0  0  0  0  0  0  0  0  0
    1.9741   -3.8096   -3.2927 C   0  0  0  0  0  0  0  0  0  0  0  0
    1.8763   -4.7660   -2.2664 C   0  0  0  0  0  0  0  0  0  0  0  0
    0.5949   -5.2593   -1.9163 C   0  0  0  0  0  0  0  0  0  0  0  0
   -0.5539   -4.8299   -2.5972 C   0  0  0  0  0  0  0  0  0  0  0  0
   -1.8766   -5.3368   -2.2197 C   0  0  0  0  0  0  0  0  0  0  0  0
   -2.0153   -6.0883   -1.2696 O   0  0  0  0  0  0  0  0  0  0  0  0
   -3.0464   -4.8603   -3.0496 C   0  0  0  0  0  0  0  0  0  0  0  0
   -4.1804   -4.8790   -2.5964 O   0  0  0  0  0  0  0  0  0  0  0  0
   -2.6702   -4.3816   -4.4321 C   0  0  1  0  0  0  0  0  0  0  0  0
   -1.4972   -3.5443   -4.4349 O   0  0  0  0  0  0  0  0  0  0  0  0
   -0.4512   -3.9286   -3.6423 C   0  0  0  0  0  0  0  0  0  0  0  0
    0.8085   -3.4079   -3.9473 C   0  0  0  0  0  0  0  0  0  0  0  0
    0.9095   -2.5006   -4.9330 F   0  0  0  0  0  0  0  0  0  0  0  0
   -2.6046   -5.5230   -5.4185 C   0  0  1  0  0  0  0  0  0  0  0  0
   -3.8231   -6.2630   -5.6155 O   0  0  0  0  0  0  0  0  0  0  0  0
   -1.8585   -5.2735   -6.6241 O   0  0  0  0  0  0  0  0  0  0  0  0
   -1.3837   -6.2048   -5.7951 C   0  0  0  0  0  0  0  0  0  0  0  0
   -0.2970   -6.3123   -5.2429 O   0  0  0  0  0  0  0  0  0  0  0  0
    1.9292   -2.8335    2.5906 C   0  0  0  0  0  0  0  0  0  0  0  0
    2.0687   -1.9654    1.7411 O   0  0  0  0  0  0  0  0  0  0  0  0
    1.3819   -2.5350    3.9742 C   0  0  0  0  0  0  0  0  0  0  0  0
    1.1253   -1.3974    4.3260 O   0  0  0  0  0  0  0  0  0  0  0  0
    1.2114   -3.7021    4.9259 C   0  0  0  0  0  0  0  0  0  0  0  0
    0.2772   -3.7926    5.6988 O   0  0  0  0  0  0  0  0  0  0  0  0
  1  2  1  0  0  0  0
  2  3  2  0  0  0  0
  3  4  1  0  0  0  0
  3 52  1  0  0  0  0
  4  5  1  0  0  0  0
  5  6  1  6  0  0  0
  5 48  1  0  0  0  0
  6  7  1  0  0  0  0
  7  8  2  0  0  0  0
  7 12  1  0  0  0  0
  8  9  1  0  0  0  0
  8 25  1  0  0  0  0
  9 10  1  0  0  0  0
 10 11  2  0  0  0  0
 10 21  1  0  0  0  0
 11 12  1  0  0  0  0
 11 13  1  0  0  0  0
 13 14  2  0  0  0  0
 13 19  1  0  0  0  0
 14 15  1  0  0  0  0
 15 16  2  0  0  0  0
 15 17  1  0  0  0  0
 17 18  2  0  0  0  0
 18 19  1  0  0  0  0
 19 20  2  0  0  0  0
 20 21  1  0  0  0  0
 20 22  1  0  0  0  0
 22 23  1  0  0  0  0
 22 24  1  0  0  0  0
 23 24  2  0  0  0  0
 25 26  2  0  0  0  0
 25 31  1  0  0  0  0
 26 27  1  0  0  0  0
 27 28  1  0  0  0  0
 27 29  2  0  0  0  0
 29 30  1  0  0  0  0
 30 31  2  0  0  0  0
 30 41  1  0  0  0  0
 31 32  1  0  0  0  0
 32 33  2  0  0  0  0
 33 34  1  0  0  0  0
 33 40  1  0  0  0  0
 34 35  2  0  0  0  0
 34 36  1  0  0  0  0
 36 37  2  0  0  0  0
 38 36  1  1  0  0  0
 38 39  1  0  0  0  0
 38 43  1  0  0  0  0
 39 40  1  0  0  0  0
 40 41  2  0  0  0  0
 41 42  1  0  0  0  0
 43 44  1  6  0  0  0
 43 45  1  0  0  0  0
 43 46  1  0  0  0  0
 45 46  1  0  0  0  0
 46 47  2  0  0  0  0
 48 49  2  0  0  0  0
 48 50  1  0  0  0  0
 50 51  2  0  0  0  0
 50 52  1  0  0  0  0
 52 53  2  0  0  0  0
M  CHG  1  27   1
M  END
$$$$