
 OpenBabel09222004083D

 53 61  0  0  1  0  0  0  0  0999 V2000
    0.8017   -0.4268   -0.2291 N   0  0  0  0  0  0  0  0  0  0  0  0
    2.0288    0.1392   -0.0946 C   0  0  0  0  0  0  0  0  0  0  0  0
    2.2756    1.2429   -0.5578 O   0  0  0  0  0  0  0  0  0  0  0  0
    2.8522   -0.6869    0.6461 O   0  0  0  0  0  0  0  0  0  0  0  0
    4.2297   -0.4282    0.5226 C   0  0  0  0  0  0  0  0  0  0  0  0
    4.6795    0.0018   -0.6735 N   0  0  0  0  0  0  0  0  0  0  0  0
    5.9885    0.2746   -0.7886 C   0  0  0  0  0  0  0  0  0  0  0  0
    6.3694    0.7775   -2.0114 O   0  0  0  0  0  0  0  0  0  0  0  0
    7.7229    0.8253   -2.3249 C   0  0  0  0  0  0  0  0  0  0  0  0
    8.7034    0.5811   -1.4309 C   0  0  0  0  0  0  0  0  0  0  0  0
    8.3288    0.4292    0.0197 C   0  0  0  0  0  0  0  0  0  0  0  0
    6.8955    0.0735    0.2365 C   0  0  0  0  0  0  0  0  0  0  0  0
    6.4080   -0.4401    1.4429 C   0  0  0  0  0  0  0  0  0  0  0  0
    5.0553   -0.7287    1.5980 C   0  0  0  0  0  0  0  0  0  0  0  0
    4.5615   -1.2593    2.9036 C   0  0  0  0  0  0  0  0  0  0  0  0
    5.6249   -1.7335    3.7624 N   0  0  0  0  0  0  0  0  0  0  0  0
    6.9123   -1.3252    3.6638 C   0  0  0  0  0  0  0  0  0  0  0  0
    7.7390   -1.5611    4.5379 O   0  0  0  0  0  0  0  0  0  0  0  0
    7.2665   -0.6766    2.5243 N   0  0  0  0  0  0  0  0  0  0  0  0
   10.0439    0.5662   -1.8003 O   0  0  0  0  0  0  0  0  0  0  0  0
   10.9171   -0.2836   -1.0514 C   0  0  1  0  0  0  0  0  0  0  0  0
   10.4968   -1.6517   -1.0962 O   0  0  0  0  0  0  0  0  0  0  0  0
   11.1280   -2.4515   -0.0858 C   0  0  1  0  0  0  0  0  0  0  0  0
   10.5211   -3.8177   -0.1288 C   0  0  0  0  0  0  0  0  0  0  0  0
   11.0392   -4.7555    0.8141 O   0  0  0  0  0  0  0  0  0  0  0  0
   11.3357   -4.8858   -0.5997 O   0  0  0  0  0  0  0  0  0  0  0  0
   12.6434   -2.4118   -0.2030 C   0  0  0  0  0  0  0  0  0  0  0  0
   13.4236   -2.9690    0.5549 O   0  0  0  0  0  0  0  0  0  0  0  0
   13.1547   -1.4477   -1.2505 C   0  0  0  0  0  0  0  0  0  0  0  0
   14.2231   -1.6556   -1.8031 O   0  0  0  0  0  0  0  0  0  0  0  0
   12.3452   -0.2095   -1.5766 C   0  0  0  0  0  0  0  0  0  0  0  0
   12.8595    0.7558   -2.1203 O   0  0  0  0  0  0  0  0  0  0  0  0
    7.9603    1.2964   -3.7023 C   0  0  0  0  0  0  0  0  0  0  0  0
    7.9759    2.6534   -3.8035 N   0  0  0  0  0  0  0  0  0  0  0  0
    8.0561    3.1911   -5.0349 C   0  0  0  0  0  0  0  0  0  0  0  0
    8.0891    2.4444   -6.1952 C   0  0  0  0  0  0  0  0  0  0  0  0
    8.0886    1.0528   -6.0958 C   0  0  0  0  0  0  0  0  0  0  0  0
    8.0531    0.4377   -4.8192 C   0  0  0  0  0  0  0  0  0  0  0  0
    8.1230   -0.9725   -4.7559 C   0  0  0  0  0  0  0  0  0  0  0  0
    8.2519   -1.7286   -5.9264 C   0  0  0  0  0  0  0  0  0  0  0  0
    8.2589   -1.1120   -7.1719 C   0  0  0  0  0  0  0  0  0  0  0  0
    8.1428    0.2703   -7.2587 C   0  0  0  0  0  0  0  0  0  0  0  0
    8.3937   -1.7841   -8.3533 O   0  0  0  0  0  0  0  0  0  0  0  0
    9.2052   -2.9629   -8.2759 C   0  0  2  0  0  0  0  0  0  0  0  0
    8.8142   -3.8836   -7.1473 C   0  0  0  0  0  0  0  0  0  0  0  0
    8.9145   -5.1016   -7.2006 O   0  0  0  0  0  0  0  0  0  0  0  0
    8.4542   -3.1808   -5.8547 C   0  0  0  0  0  0  0  0  0  0  0  0
    8.4253   -3.7901   -4.7971 O   0  0  0  0  0  0  0  0  0  0  0  0
   10.6661   -2.6125   -8.2801 C   0  0  1  0  0  0  0  0  0  0  0  0
   11.1354   -1.8821   -9.4399 O   0  0  0  0  0  0  0  0  0  0  0  0
   11.1904   -2.1796   -7.0215 O   0  0  0  0  0  0  0  0  0  0  0  0
   11.7067   -3.3217   -7.5271 C   0  0  0  0  0  0  0  0  0  0  0  0
   12.8464   -3.5765   -7.8249 O   0  0  0  0  0  0  0  0  0  0  0  0
  1  2  1  0  0  0  0
  2  3  2  0  0  0  0
  2  4  1  0  0  0  0
  4  5  1  0  0  0  0
  5  6  2  0  0  0  0
  5 14  1  0  0  0  0
  6  7  1  0  0  0  0
  7  8  1  0  0  0  0
  7 12  2  0  0  0  0
  8  9  1  0  0  0  0
  9 10  2  0  0  0  0
  9 33  1  0  0  0  0
 10 11  1  0  0  0  0
 10 20  1  0  0  0  0
 11 12  1  0  0  0  0
 12 13  1  0  0  0  0
 13 14  2  0  0  0  0
 13 19  1  0  0  0  0
 14 15  1  0  0  0  0
 15 16  1  0  0  0  0
 16 17  1  0  0  0  0
 17 18  2  0  0  0  0
 17 19  1  0  0  0  0
 21 20  1  6  0  0  0
 21 22  1  0  0  0  0
 21 31  1  0  0  0  0
 22 23  1  0  0  0  0
 23 27  1  0  0  0  0
 23 24  1  6  0  0  0
 24 25  1  0  0  0  0
 24 26  1  0  0  0  0
 25 26  1  0  0  0  0
 27 28  2  0  0  0  0
 27 29  1  0  0  0  0
 29 30  2  0  0  0  0
 29 31  1  0  0  0  0
 31 32  2  0  0  0  0
 33 34  2  0  0  0  0
 33 38  1  0  0  0  0
 34 35  1  0  0  0  0
 35 36  2  0  0  0  0
 36 37  1  0  0  0  0
 37 38  2  0  0  0  0
 37 42  1  0  0  0  0
 38 39  1  0  0  0  0
 39 40  2  0  0  0  0
 40 41  1  0  0  0  0
 40 47  1  0  0  0  0
 41 42  2  0  0  0  0
 41 43  1  0  0  0  0
 44 43  1  1  0  0  0
 44 45  1  0  0  0  0
 44 49  1  0  0  0  0
 45 46  2  0  0  0  0
 45 47  1  0  0  0  0
 47 48  2  0  0  0  0
 49 50  1  6  0  0  0
 49 51  1  0  0  0  0
 49 52  1  0  0  0  0
 51 52  1  0  0  0  0
 52 53  2  0  0  0  0
M  END
$$$$