
 OpenBabel05192121263D

 52 62  0  0  1  0  0  0  0  0999 V2000
    1.8810    0.1875   -3.7786 F   0  0  0  0  0  0  0  0  0  0  0  0
    3.1804   -0.1124   -3.6501 C   0  0  0  0  0  0  0  0  0  0  0  0
    4.1243    0.6878   -4.2647 C   0  0  0  0  0  0  0  0  0  0  0  0
    5.4625    0.3881   -4.0691 C   0  0  0  0  0  0  0  0  0  0  0  0
    5.8308   -0.6754   -3.2296 C   0  0  0  0  0  0  0  0  0  0  0  0
    4.9012   -1.5544   -2.6269 C   0  0  0  0  0  0  0  0  0  0  0  0
    3.5534   -1.2302   -2.8925 C   0  0  0  0  0  0  0  0  0  0  0  0
    5.3016   -2.7468   -1.7688 C   0  0  0  0  0  0  0  0  0  0  0  0
    4.5007   -3.2232   -0.6944 C   0  0  0  0  0  0  0  0  0  0  0  0
    3.2241   -2.5866   -0.1928 C   0  0  0  0  0  0  0  0  0  0  0  0
    4.8406   -4.4221   -0.0183 C   0  0  0  0  0  0  0  0  0  0  0  0
    6.0218   -5.1384   -0.2380 C   0  0  0  0  0  0  0  0  0  0  0  0
    6.9439   -4.5637   -1.1407 C   0  0  0  0  0  0  0  0  0  0  0  0
    6.5224   -3.4752   -1.9576 C   0  0  0  0  0  0  0  0  0  0  0  0
    7.3413   -3.3621   -3.1907 C   0  0  0  0  0  0  0  0  0  0  0  0
    6.7667   -3.2779   -4.2768 O   0  0  0  0  0  0  0  0  0  0  0  0
    8.8879   -3.3989   -3.0325 C   0  0  1  0  0  0  0  0  0  0  0  0
    9.3684   -4.3419   -1.8957 C   0  0  2  0  0  0  0  0  0  0  0  0
    8.2469   -5.1031   -1.2194 C   0  0  0  0  0  0  0  0  0  0  0  0
    8.5490   -6.2643   -0.5281 C   0  0  0  0  0  0  0  0  0  0  0  0
    7.5778   -6.9071    0.2316 C   0  0  0  0  0  0  0  0  0  0  0  0
    6.2893   -6.3779    0.4267 C   0  0  0  0  0  0  0  0  0  0  0  0
    5.1949   -7.1536    1.3413 C   0  0  0  0  0  0  0  0  0  0  0  0
    5.9345   -8.2091    2.5806 C   0  0  0  0  0  0  0  0  0  0  0  0
    5.3545   -8.8779    1.7045 C   0  0  0  0  0  0  0  0  0  0  0  0
    4.7123   -8.7313    0.6334 C   0  0  0  0  0  0  0  0  0  0  0  0
    9.7600   -6.8678   -0.5138 O   0  0  0  0  0  0  0  0  0  0  0  0
   10.8247   -6.3395   -1.3017 C   0  0  2  0  0  0  0  0  0  0  0  0
   10.4718   -5.2983   -2.3730 C   0  0  1  0  0  0  0  0  0  0  0  0
   10.0345   -5.8736   -3.6909 C   0  0  0  0  0  0  0  0  0  0  0  0
    9.5074   -4.9807   -4.6260 C   0  0  0  0  0  0  0  0  0  0  0  0
    9.4834   -3.6526   -4.3108 O   0  0  0  0  0  0  0  0  0  0  0  0
    9.0542   -5.4095   -5.8683 C   0  0  0  0  0  0  0  0  0  0  0  0
    8.5239   -4.4651   -6.9061 C   0  0  0  0  0  0  0  0  0  0  0  0
    9.0772   -6.7825   -6.1339 C   0  0  0  0  0  0  0  0  0  0  0  0
    9.5872   -7.6991   -5.1981 C   0  0  0  0  0  0  0  0  0  0  0  0
   10.1253   -7.2358   -3.9867 C   0  0  0  0  0  0  0  0  0  0  0  0
   10.7248   -8.1539   -3.1155 C   0  0  0  0  0  0  0  0  0  0  0  0
   11.3944   -7.6327   -1.9049 C   0  0  0  0  0  0  0  0  0  0  0  0
   12.3284   -8.2483   -1.3906 O   0  0  0  0  0  0  0  0  0  0  0  0
   10.7118   -9.5279   -3.3849 C   0  0  0  0  0  0  0  0  0  0  0  0
   10.1080  -10.0036   -4.5518 C   0  0  0  0  0  0  0  0  0  0  0  0
    9.5535   -9.0771   -5.4429 C   0  0  0  0  0  0  0  0  0  0  0  0
    9.8661  -11.7681   -4.7621 S   0  3  0  0  0  0  0  0  0  0  0  0
   11.5469  -12.4299   -4.6938 C   0  0  0  0  0  0  0  0  0  0  0  0
   12.4998  -11.9457   -5.7737 C   0  0  0  0  0  0  0  0  0  0  0  0
   11.9932  -12.2175   -7.1848 C   0  0  0  0  0  0  0  0  0  0  0  0
   10.6843  -11.4917   -7.4467 C   0  0  0  0  0  0  0  0  0  0  0  0
    9.5720  -11.9804   -6.5323 C   0  0  0  0  0  0  0  0  0  0  0  0
   11.7943   -5.7687   -0.4202 O   0  0  0  0  0  0  0  0  0  0  0  0
    9.3197   -2.0817   -2.6750 O   0  0  0  0  0  0  0  0  0  0  0  0
    7.1446   -0.8049   -3.0045 F   0  0  0  0  0  0  0  0  0  0  0  0
  1  2  1  0  0  0  0
  2  3  2  0  0  0  0
  2  7  1  0  0  0  0
  3  4  1  0  0  0  0
  4  5  2  0  0  0  0
  5  6  1  0  0  0  0
  5 52  1  0  0  0  0
  6  7  2  0  0  0  0
  6  8  1  0  0  0  0
  8  9  2  0  0  0  0
  8 14  1  0  0  0  0
  9 11  1  0  0  0  0
  9 10  1  0  0  0  0
 11 12  2  0  0  0  0
 12 13  1  0  0  0  0
 12 22  1  0  0  0  0
 13 14  2  0  0  0  0
 13 19  1  0  0  0  0
 14 15  1  0  0  0  0
 15 17  1  0  0  0  0
 15 16  2  0  0  0  0
 17 18  1  0  0  0  0
 17 32  1  0  0  0  0
 17 51  1  1  0  0  0
 18 19  1  1  0  0  0
 18 29  1  0  0  0  0
 19 20  2  0  0  0  0
 20 21  1  0  0  0  0
 20 27  1  0  0  0  0
 21 22  2  0  0  0  0
 22 23  1  0  0  0  0
 23 24  1  0  0  0  0
 23 26  1  0  0  0  0
 24 25  2  0  0  0  0
 25 26  2  0  0  0  0
 27 28  1  0  0  0  0
 28 29  1  0  0  0  0
 28 39  1  0  0  0  0
 28 50  1  1  0  0  0
 29 30  1  6  0  0  0
 30 31  2  0  0  0  0
 30 37  1  0  0  0  0
 31 32  1  0  0  0  0
 31 33  1  0  0  0  0
 33 35  2  0  0  0  0
 33 34  1  0  0  0  0
 35 36  1  0  0  0  0
 36 37  2  0  0  0  0
 36 43  1  0  0  0  0
 37 38  1  0  0  0  0
 38 39  1  0  0  0  0
 38 41  2  0  0  0  0
 39 40  2  0  0  0  0
 41 42  1  0  0  0  0
 42 43  2  0  0  0  0
 42 44  1  0  0  0  0
 44 45  1  0  0  0  0
 44 49  1  0  0  0  0
 45 46  1  0  0  0  0
 46 47  1  0  0  0  0
 47 48  1  0  0  0  0
 48 49  1  0  0  0  0
M  CHG  1  44   1
M  END
$$$$