
 OpenBabel11292000063D

 55 63  0  0  1  0  0  0  0  0999 V2000
   -2.2223    3.7309   -1.2734 F   0  0  0  0  0  0  0  0  0  0  0  0
   -2.1143    3.1793   -2.4972 C   0  0  0  0  0  0  0  0  0  0  0  0
   -0.9350    3.1035   -3.1173 C   0  0  0  0  0  0  0  0  0  0  0  0
    0.1943    3.6048   -2.5023 O   0  0  0  0  0  0  0  0  0  0  0  0
    1.4585    3.1725   -2.9945 C   0  0  2  0  0  0  0  0  0  0  0  0
    2.5344    3.8086   -2.2832 O   0  0  0  0  0  0  0  0  0  0  0  0
    2.7135    5.1820   -2.3787 C   0  0  0  0  0  0  0  0  0  0  0  0
    3.9469    5.7166   -2.2993 C   0  0  0  0  0  0  0  0  0  0  0  0
    4.1951    7.0828   -2.3269 O   0  0  0  0  0  0  0  0  0  0  0  0
    3.1281    7.9876   -2.2893 C   0  0  0  0  0  0  0  0  0  0  0  0
    1.8532    7.5448   -2.3287 C   0  0  0  0  0  0  0  0  0  0  0  0
    1.5127    6.0824   -2.4483 C   0  0  0  0  0  0  0  0  0  0  0  0
    0.6821    8.4787   -2.2252 C   0  0  3  0  0  0  0  0  0  0  0  0
   -0.0339    8.1441   -1.0560 O   0  0  0  0  0  0  0  0  0  0  0  0
   -1.0852    8.9388   -0.7142 C   0  0  0  0  0  0  0  0  0  0  0  0
   -1.9284    8.5567    0.0789 O   0  0  0  0  0  0  0  0  0  0  0  0
   -1.1381   10.1639   -1.2981 O   0  0  0  0  0  0  0  0  0  0  0  0
   -0.0546   10.7289   -1.8568 C   0  0  0  0  0  0  0  0  0  0  0  0
   -0.0350   11.8941   -2.2283 O   0  0  0  0  0  0  0  0  0  0  0  0
    1.1120    9.8715   -2.0505 C   0  0  0  0  0  0  0  0  0  0  0  0
    2.3990   10.2993   -2.0511 C   0  0  0  0  0  0  0  0  0  0  0  0
    3.4305    9.3557   -2.2113 O   0  3  0  0  0  0  0  0  0  0  0  0
    4.7779    9.7171   -1.9419 N   0  0  0  0  0  0  0  0  0  0  0  0
    2.7576   11.7399   -1.8977 C   0  0  0  0  0  0  0  0  0  0  0  0
    3.9437   12.3058   -2.4902 O   0  0  0  0  0  0  0  0  0  0  0  0
    2.6529   12.6399   -3.0166 O   0  0  0  0  0  0  0  0  0  0  0  0
    5.1539    4.8926   -2.1068 C   0  0  0  0  0  0  0  0  0  0  0  0
    5.7836    4.3661   -3.2316 C   0  0  0  0  0  0  0  0  0  0  0  0
    6.9127    3.6029   -3.0393 C   0  0  0  0  0  0  0  0  0  0  0  0
    7.5383    3.1087   -4.1151 F   0  0  0  0  0  0  0  0  0  0  0  0
    7.4421    3.3331   -1.8325 N   0  0  0  0  0  0  0  0  0  0  0  0
    6.8460    3.8270   -0.7333 C   0  0  0  0  0  0  0  0  0  0  0  0
    5.6815    4.6247   -0.8160 C   0  0  0  0  0  0  0  0  0  0  0  0
    5.1079    5.1222    0.3769 C   0  0  0  0  0  0  0  0  0  0  0  0
    5.6981    4.8753    1.6190 C   0  0  0  0  0  0  0  0  0  0  0  0
    5.1249    5.4670    2.8330 C   0  0  0  0  0  0  0  0  0  0  0  0
    4.0811    6.1018    2.7915 O   0  0  0  0  0  0  0  0  0  0  0  0
    5.9128    5.2928    4.1136 C   0  0  0  0  0  0  0  0  0  0  0  0
    5.4175    5.5697    5.1964 O   0  0  0  0  0  0  0  0  0  0  0  0
    7.3420    4.8456    3.9052 C   0  0  1  0  0  0  0  0  0  0  0  0
    7.4991    3.8556    2.8802 O   0  0  0  0  0  0  0  0  0  0  0  0
    6.8483    4.1121    1.7045 C   0  0  0  0  0  0  0  0  0  0  0  0
    7.3876    3.5763    0.5325 C   0  0  0  0  0  0  0  0  0  0  0  0
    8.5008    2.8297    0.6333 F   0  0  0  0  0  0  0  0  0  0  0  0
    8.2383    6.0134    3.6384 C   0  0  1  0  0  0  0  0  0  0  0  0
    7.8935    6.8629    2.5093 O   0  0  0  0  0  0  0  0  0  0  0  0
    8.7367    6.6776    4.7910 O   0  0  0  0  0  0  0  0  0  0  0  0
    9.6501    6.0495    4.0249 C   0  0  0  0  0  0  0  0  0  0  0  0
   10.5860    6.5165    3.4039 O   0  0  0  0  0  0  0  0  0  0  0  0
    1.5615    3.3162   -4.5066 C   0  0  0  0  0  0  0  0  0  0  0  0
    2.4227    3.9391   -5.1134 O   0  0  0  0  0  0  0  0  0  0  0  0
    0.4028    2.6757   -5.2193 C   0  0  0  0  0  0  0  0  0  0  0  0
    0.5387    2.2848   -6.3662 O   0  0  0  0  0  0  0  0  0  0  0  0
   -0.9272    2.5585   -4.5023 C   0  0  0  0  0  0  0  0  0  0  0  0
   -1.9105    2.0957   -5.0529 O   0  0  0  0  0  0  0  0  0  0  0  0
  1  2  1  0  0  0  0
  2  3  2  0  0  0  0
  3  4  1  0  0  0  0
  3 54  1  0  0  0  0
  4  5  1  0  0  0  0
  5  6  1  1  0  0  0
  5 50  1  0  0  0  0
  6  7  1  0  0  0  0
  7  8  2  0  0  0  0
  7 12  1  0  0  0  0
  8  9  1  0  0  0  0
  8 27  1  0  0  0  0
  9 10  1  0  0  0  0
 10 11  2  0  0  0  0
 10 22  1  0  0  0  0
 11 12  1  0  0  0  0
 11 13  1  0  0  0  0
 13 14  1  0  0  0  0
 13 20  1  0  0  0  0
 14 15  1  0  0  0  0
 15 16  2  0  0  0  0
 15 17  1  0  0  0  0
 17 18  1  0  0  0  0
 18 19  2  0  0  0  0
 18 20  1  0  0  0  0
 20 21  2  0  0  0  0
 21 22  1  0  0  0  0
 21 24  1  0  0  0  0
 22 23  1  0  0  0  0
 24 25  1  0  0  0  0
 24 26  1  0  0  0  0
 25 26  1  0  0  0  0
 27 28  2  0  0  0  0
 27 33  1  0  0  0  0
 28 29  1  0  0  0  0
 29 30  1  0  0  0  0
 29 31  2  0  0  0  0
 31 32  1  0  0  0  0
 32 33  2  0  0  0  0
 32 43  1  0  0  0  0
 33 34  1  0  0  0  0
 34 35  2  0  0  0  0
 35 36  1  0  0  0  0
 35 42  1  0  0  0  0
 36 37  2  0  0  0  0
 36 38  1  0  0  0  0
 38 39  2  0  0  0  0
 40 38  1  6  0  0  0
 40 41  1  0  0  0  0
 40 45  1  0  0  0  0
 41 42  1  0  0  0  0
 42 43  2  0  0  0  0
 43 44  1  0  0  0  0
 45 46  1  6  0  0  0
 45 47  1  0  0  0  0
 45 48  1  0  0  0  0
 47 48  1  0  0  0  0
 48 49  2  0  0  0  0
 50 51  2  0  0  0  0
 50 52  1  0  0  0  0
 52 53  2  0  0  0  0
 52 54  1  0  0  0  0
 54 55  2  0  0  0  0
M  CHG  1  22   1
M  END
$$$$