
 OpenBabel10272021493D

 54 62  0  0  1  0  0  0  0  0999 V2000
   -0.5140    7.1447   -7.4492 O   0  0  0  0  0  0  0  0  0  0  0  0
   -1.0301    5.8966   -7.2078 C   0  0  0  0  0  0  0  0  0  0  0  0
   -0.3064    4.9398   -6.6176 C   0  0  0  0  0  0  0  0  0  0  0  0
    1.0110    5.1856   -6.2606 O   0  0  0  0  0  0  0  0  0  0  0  0
    1.4347    4.4832   -5.1007 C   0  0  2  0  0  0  0  0  0  0  0  0
    2.7771    4.8004   -4.7380 O   0  0  0  0  0  0  0  0  0  0  0  0
    3.1282    5.9730   -4.1026 C   0  0  0  0  0  0  0  0  0  0  0  0
    4.3445    6.1156   -3.5161 C   0  0  0  0  0  0  0  0  0  0  0  0
    4.6619    7.2757   -2.7815 O   0  0  0  0  0  0  0  0  0  0  0  0
    3.6855    8.2257   -2.5244 C   0  0  0  0  0  0  0  0  0  0  0  0
    2.4658    8.1553   -3.0740 C   0  0  0  0  0  0  0  0  0  0  0  0
    2.1015    7.0712   -4.0273 C   0  0  0  0  0  0  0  0  0  0  0  0
    1.4082    9.1672   -2.7365 C   0  0  3  0  0  0  0  0  0  0  0  0
    0.2192    8.4218   -2.3938 O   0  0  0  0  0  0  0  0  0  0  0  0
   -0.7408    8.8420   -1.5469 C   0  0  0  0  0  0  0  0  0  0  0  0
   -1.7991    8.2232   -1.4804 O   0  0  0  0  0  0  0  0  0  0  0  0
   -0.3980    9.9480   -0.5906 C   0  0  3  0  0  0  0  0  0  0  0  0
    0.6207   10.9241   -1.1678 C   0  0  0  0  0  0  0  0  0  0  0  0
    1.7979   10.1262   -1.6403 C   0  0  0  0  0  0  0  0  0  0  0  0
    3.0724   10.1772   -1.1821 C   0  0  0  0  0  0  0  0  0  0  0  0
    3.9918    9.2564   -1.6695 N   0  0  0  0  0  0  0  0  0  0  0  0
    3.5758   11.1172   -0.1520 C   0  0  0  0  0  0  0  0  0  0  0  0
    4.9362   11.5887   -0.1567 O   0  0  0  0  0  0  0  0  0  0  0  0
    3.8552   12.4958   -0.4447 O   0  0  0  0  0  0  0  0  0  0  0  0
   -1.6461   10.7051   -0.1929 C   0  0  0  0  0  0  0  0  0  0  0  0
   -2.3420   11.2864   -1.0217 O   0  0  0  0  0  0  0  0  0  0  0  0
   -1.9008   10.7325    1.5308 Cl  0  0  0  0  0  0  0  0  0  0  0  0
    5.4504    5.0920   -3.4644 C   0  0  0  0  0  0  0  0  0  0  0  0
    6.1515    5.1382   -2.3044 N   0  0  0  0  0  0  0  0  0  0  0  0
    7.1593    4.2712   -2.1637 C   0  0  0  0  0  0  0  0  0  0  0  0
    7.5517    3.3606   -3.0634 N   0  0  0  0  0  0  0  0  0  0  0  0
    6.8771    3.3141   -4.2156 C   0  0  0  0  0  0  0  0  0  0  0  0
    5.8024    4.1784   -4.4896 C   0  0  0  0  0  0  0  0  0  0  0  0
    5.2000    4.0718   -5.7615 C   0  0  0  0  0  0  0  0  0  0  0  0
    5.5996    3.1406   -6.7095 C   0  0  0  0  0  0  0  0  0  0  0  0
    6.6320    2.2721   -6.4314 C   0  0  0  0  0  0  0  0  0  0  0  0
    7.2658    2.3769   -5.1856 C   0  0  0  0  0  0  0  0  0  0  0  0
    7.0863    1.3254   -7.3063 O   0  0  0  0  0  0  0  0  0  0  0  0
    6.2538    1.0430   -8.4435 C   0  0  2  0  0  0  0  0  0  0  0  0
    5.4720    2.1958   -9.0338 C   0  0  0  0  0  0  0  0  0  0  0  0
    5.2153    2.3371  -10.2211 O   0  0  0  0  0  0  0  0  0  0  0  0
    4.9191    3.1371   -8.0061 C   0  0  0  0  0  0  0  0  0  0  0  0
    3.9691    3.8638   -8.2546 O   0  0  0  0  0  0  0  0  0  0  0  0
    5.3022   -0.0663   -8.1326 C   0  0  1  0  0  0  0  0  0  0  0  0
    4.3715    0.1789   -7.0539 O   0  0  0  0  0  0  0  0  0  0  0  0
    4.7408   -0.6888   -9.2966 O   0  0  0  0  0  0  0  0  0  0  0  0
    5.5012   -1.4653   -8.4998 C   0  0  0  0  0  0  0  0  0  0  0  0
    5.2213   -2.4751   -7.9065 O   0  0  0  0  0  0  0  0  0  0  0  0
    1.3736    2.9831   -5.3448 C   0  0  0  0  0  0  0  0  0  0  0  0
    2.2343    2.1644   -5.0525 O   0  0  0  0  0  0  0  0  0  0  0  0
    0.0512    2.5492   -5.9284 C   0  0  0  0  0  0  0  0  0  0  0  0
   -0.2333    1.3640   -6.0048 O   0  0  0  0  0  0  0  0  0  0  0  0
   -0.9311    3.6065   -6.3889 C   0  0  0  0  0  0  0  0  0  0  0  0
   -2.1216    3.3707   -6.5118 O   0  0  0  0  0  0  0  0  0  0  0  0
  1  2  1  0  0  0  0
  2  3  2  0  0  0  0
  3  4  1  0  0  0  0
  3 53  1  0  0  0  0
  4  5  1  0  0  0  0
  5  6  1  6  0  0  0
  5 49  1  0  0  0  0
  6  7  1  0  0  0  0
  7  8  2  0  0  0  0
  7 12  1  0  0  0  0
  8  9  1  0  0  0  0
  8 28  1  0  0  0  0
  9 10  1  0  0  0  0
 10 11  2  0  0  0  0
 10 21  1  0  0  0  0
 11 12  1  0  0  0  0
 11 13  1  0  0  0  0
 13 14  1  0  0  0  0
 13 19  1  0  0  0  0
 14 15  1  0  0  0  0
 15 16  2  0  0  0  0
 15 17  1  0  0  0  0
 17 18  1  0  0  0  0
 17 25  1  0  0  0  0
 18 19  1  0  0  0  0
 19 20  2  0  0  0  0
 20 21  1  0  0  0  0
 20 22  1  0  0  0  0
 22 23  1  0  0  0  0
 22 24  1  0  0  0  0
 23 24  1  0  0  0  0
 25 26  2  0  0  0  0
 25 27  1  0  0  0  0
 28 29  2  0  0  0  0
 28 33  1  0  0  0  0
 29 30  1  0  0  0  0
 30 31  2  0  0  0  0
 31 32  1  0  0  0  0
 32 33  2  0  0  0  0
 32 37  1  0  0  0  0
 33 34  1  0  0  0  0
 34 35  2  0  0  0  0
 35 36  1  0  0  0  0
 35 42  1  0  0  0  0
 36 37  2  0  0  0  0
 36 38  1  0  0  0  0
 39 38  1  1  0  0  0
 39 40  1  0  0  0  0
 39 44  1  0  0  0  0
 40 41  2  0  0  0  0
 40 42  1  0  0  0  0
 42 43  2  0  0  0  0
 44 45  1  1  0  0  0
 44 46  1  0  0  0  0
 44 47  1  0  0  0  0
 46 47  1  0  0  0  0
 47 48  2  0  0  0  0
 49 50  2  0  0  0  0
 49 51  1  0  0  0  0
 51 52  2  0  0  0  0
 51 53  1  0  0  0  0
 53 54  2  0  0  0  0
M  END
$$$$