
 OpenBabel10202010143D

 55 64  0  0  1  0  0  0  0  0999 V2000
    6.9222    5.8471    0.9738 O   0  0  0  0  0  0  0  0  0  0  0  0
    6.5253    4.5419    0.8513 C   0  0  0  0  0  0  0  0  0  0  0  0
    5.3676    4.1458    0.3058 C   0  0  0  0  0  0  0  0  0  0  0  0
    4.4489    5.0615   -0.1830 O   0  0  0  0  0  0  0  0  0  0  0  0
    3.6382    4.6765   -1.3038 C   0  0  2  0  0  0  0  0  0  0  0  0
    2.3762    5.4000   -1.3312 O   0  0  0  0  0  0  0  0  0  0  0  0
    2.3546    6.7699   -1.5993 C   0  0  0  0  0  0  0  0  0  0  0  0
    1.1949    7.4702   -1.6920 C   0  0  0  0  0  0  0  0  0  0  0  0
    1.1557    8.8630   -1.9103 O   0  0  0  0  0  0  0  0  0  0  0  0
    2.3446    9.5830   -2.0169 C   0  0  0  0  0  0  0  0  0  0  0  0
    3.5232    8.9661   -1.9546 C   0  0  0  0  0  0  0  0  0  0  0  0
    3.6638    7.4983   -1.7598 C   0  0  0  0  0  0  0  0  0  0  0  0
    4.7662    9.7680   -2.0980 C   0  0  0  0  0  0  0  0  0  0  0  0
    5.8715    9.0979   -2.0368 N   0  0  0  0  0  0  0  0  0  0  0  0
    7.0828    9.7017   -2.1615 C   0  0  0  0  0  0  0  0  0  0  0  0
    8.1286    9.0812   -2.0161 O   0  0  0  0  0  0  0  0  0  0  0  0
    7.1061   11.1560   -2.4965 C   0  0  0  0  0  0  0  0  0  0  0  0
    5.9843   11.9152   -2.5054 C   0  0  0  0  0  0  0  0  0  0  0  0
    4.6734   11.2634   -2.3098 C   0  0  0  0  0  0  0  0  0  0  0  0
    3.4071   11.7734   -2.3311 C   0  0  0  0  0  0  0  0  0  0  0  0
    2.2904   10.9393   -2.2025 N   0  0  0  0  0  0  0  0  0  0  0  0
    3.0346   13.2036   -2.5161 C   0  0  0  0  0  0  0  0  0  0  0  0
    1.8311   13.7412   -1.9222 O   0  0  0  0  0  0  0  0  0  0  0  0
    3.1206   14.1729   -1.4586 O   0  0  0  0  0  0  0  0  0  0  0  0
    6.1074   13.4077   -2.7374 C   0  0  0  0  0  0  0  0  0  0  0  0
    7.5444   13.9560   -2.7286 C   0  0  0  0  0  0  0  0  0  0  0  0
    8.4937   13.0332   -3.4709 C   0  0  0  0  0  0  0  0  0  0  0  0
    8.4948   11.6645   -2.8057 C   0  0  0  0  0  0  0  0  0  0  0  0
   -0.1600    6.8881   -1.5147 C   0  0  0  0  0  0  0  0  0  0  0  0
   -0.6087    6.9335   -0.2410 N   0  0  0  0  0  0  0  0  0  0  0  0
   -1.8785    6.5606   -0.0487 C   0  0  0  0  0  0  0  0  0  0  0  0
   -2.7507    6.1999   -0.9989 N   0  0  0  0  0  0  0  0  0  0  0  0
   -2.3006    6.1586   -2.2538 C   0  0  0  0  0  0  0  0  0  0  0  0
   -0.9674    6.4588   -2.5894 C   0  0  0  0  0  0  0  0  0  0  0  0
   -0.5587    6.3172   -3.9377 C   0  0  0  0  0  0  0  0  0  0  0  0
   -1.4795    5.9349   -4.9209 C   0  0  0  0  0  0  0  0  0  0  0  0
   -2.8169    5.7450   -4.6024 C   0  0  0  0  0  0  0  0  0  0  0  0
   -3.2027    5.8254   -3.2642 C   0  0  0  0  0  0  0  0  0  0  0  0
   -3.8069    5.4818   -5.5106 O   0  0  0  0  0  0  0  0  0  0  0  0
   -3.4911    5.6706   -6.9037 C   0  0  2  0  0  0  0  0  0  0  0  0
   -2.1008    5.2020   -7.2496 C   0  0  0  0  0  0  0  0  0  0  0  0
   -1.8098    4.4906   -8.1989 O   0  0  0  0  0  0  0  0  0  0  0  0
   -1.0436    5.7164   -6.3038 C   0  0  0  0  0  0  0  0  0  0  0  0
    0.0943    5.9433   -6.6786 O   0  0  0  0  0  0  0  0  0  0  0  0
   -3.7198    7.0987   -7.3325 C   0  0  1  0  0  0  0  0  0  0  0  0
   -2.9611    8.1181   -6.6372 O   0  0  0  0  0  0  0  0  0  0  0  0
   -3.8014    7.3187   -8.7420 O   0  0  0  0  0  0  0  0  0  0  0  0
   -4.9282    7.4977   -8.0244 C   0  0  0  0  0  0  0  0  0  0  0  0
   -6.0138    7.0050   -8.1443 O   0  0  0  0  0  0  0  0  0  0  0  0
    3.2661    3.1969   -1.3886 C   0  0  0  0  0  0  0  0  0  0  0  0
    2.7647    2.6387   -2.3546 O   0  0  0  0  0  0  0  0  0  0  0  0
    3.6842    2.4051   -0.1861 C   0  0  0  0  0  0  0  0  0  0  0  0
    2.9375    1.5982    0.3386 O   0  0  0  0  0  0  0  0  0  0  0  0
    5.0496    2.6956    0.3685 C   0  0  0  0  0  0  0  0  0  0  0  0
    5.7811    1.8171    0.7871 O   0  0  0  0  0  0  0  0  0  0  0  0
  1  2  1  0  0  0  0
  2  3  2  0  0  0  0
  3  4  1  0  0  0  0
  3 54  1  0  0  0  0
  4  5  1  0  0  0  0
  5  6  1  1  0  0  0
  5 50  1  0  0  0  0
  6  7  1  0  0  0  0
  7  8  2  0  0  0  0
  7 12  1  0  0  0  0
  8  9  1  0  0  0  0
  8 29  1  0  0  0  0
  9 10  1  0  0  0  0
 10 11  2  0  0  0  0
 10 21  1  0  0  0  0
 11 12  1  0  0  0  0
 11 13  1  0  0  0  0
 13 14  2  0  0  0  0
 13 19  1  0  0  0  0
 14 15  1  0  0  0  0
 15 16  2  0  0  0  0
 15 17  1  0  0  0  0
 17 18  2  0  0  0  0
 17 28  1  0  0  0  0
 18 19  1  0  0  0  0
 18 25  1  0  0  0  0
 19 20  2  0  0  0  0
 20 21  1  0  0  0  0
 20 22  1  0  0  0  0
 22 23  1  0  0  0  0
 22 24  1  0  0  0  0
 23 24  1  0  0  0  0
 25 26  1  0  0  0  0
 26 27  1  0  0  0  0
 27 28  1  0  0  0  0
 29 30  2  0  0  0  0
 29 34  1  0  0  0  0
 30 31  1  0  0  0  0
 31 32  2  0  0  0  0
 32 33  1  0  0  0  0
 33 34  2  0  0  0  0
 33 38  1  0  0  0  0
 34 35  1  0  0  0  0
 35 36  2  0  0  0  0
 36 37  1  0  0  0  0
 36 43  1  0  0  0  0
 37 38  2  0  0  0  0
 37 39  1  0  0  0  0
 40 39  1  1  0  0  0
 40 41  1  0  0  0  0
 40 45  1  0  0  0  0
 41 42  2  0  0  0  0
 41 43  1  0  0  0  0
 43 44  2  0  0  0  0
 45 46  1  1  0  0  0
 45 47  1  0  0  0  0
 45 48  1  0  0  0  0
 47 48  1  0  0  0  0
 48 49  2  0  0  0  0
 50 51  2  0  0  0  0
 50 52  1  0  0  0  0
 52 53  2  0  0  0  0
 52 54  1  0  0  0  0
 54 55  2  0  0  0  0
M  END
$$$$