
 OpenBabel10262010593D

 51 59  0  0  1  0  0  0  0  0999 V2000
    2.2282   -4.9421   -3.1122 O   0  0  0  0  0  0  0  0  0  0  0  0
    2.5385   -3.6798   -2.6750 C   0  0  0  0  0  0  0  0  0  0  0  0
    2.5546   -3.3049   -1.3901 C   0  0  0  0  0  0  0  0  0  0  0  0
    2.1959   -4.1867   -0.3905 O   0  0  0  0  0  0  0  0  0  0  0  0
    2.9040   -4.0335    0.8450 C   0  0  2  0  0  0  0  0  0  0  0  0
    2.4224   -4.9871    1.8142 O   0  0  0  0  0  0  0  0  0  0  0  0
    2.5846   -6.3494    1.5625 C   0  0  0  0  0  0  0  0  0  0  0  0
    2.0986   -7.2892    2.4081 C   0  0  0  0  0  0  0  0  0  0  0  0
    2.2347   -8.6640    2.1919 O   0  0  0  0  0  0  0  0  0  0  0  0
    2.9487   -9.1095    1.0861 C   0  0  0  0  0  0  0  0  0  0  0  0
    3.4871   -8.2550    0.2034 C   0  0  0  0  0  0  0  0  0  0  0  0
    3.3353   -6.7823    0.3334 C   0  0  0  0  0  0  0  0  0  0  0  0
    4.2454   -8.7502   -0.9952 C   0  0  3  0  0  0  0  0  0  0  0  0
    5.5412   -8.1615   -0.9678 O   0  0  0  0  0  0  0  0  0  0  0  0
    6.3306   -8.4252   -2.0396 C   0  0  0  0  0  0  0  0  0  0  0  0
    7.2760   -7.7113   -2.3383 O   0  0  0  0  0  0  0  0  0  0  0  0
    5.9538   -9.4992   -2.7815 O   0  0  0  0  0  0  0  0  0  0  0  0
    5.3434  -10.6321   -2.1352 C   0  0  0  0  0  0  0  0  0  0  0  0
    4.4367  -10.2243   -1.0297 C   0  0  0  0  0  0  0  0  0  0  0  0
    3.8625  -11.0359   -0.1123 C   0  0  0  0  0  0  0  0  0  0  0  0
    3.1009  -10.4651    0.9028 N   0  0  0  0  0  0  0  0  0  0  0  0
    4.0039  -12.5100   -0.0988 C   0  0  0  0  0  0  0  0  0  0  0  0
    2.8645  -13.3785   -0.2088 O   0  0  0  0  0  0  0  0  0  0  0  0
    3.8223  -13.3082   -1.2816 O   0  0  0  0  0  0  0  0  0  0  0  0
    1.3888   -6.9464    3.6571 C   0  0  0  0  0  0  0  0  0  0  0  0
    2.1911   -6.8253    4.7365 N   0  0  0  0  0  0  0  0  0  0  0  0
    1.5958   -6.4341    5.8669 C   0  0  0  0  0  0  0  0  0  0  0  0
    0.2956   -6.1467    6.0173 N   0  0  0  0  0  0  0  0  0  0  0  0
   -0.4861   -6.2798    4.9429 C   0  0  0  0  0  0  0  0  0  0  0  0
    0.0028   -6.7192    3.7025 C   0  0  0  0  0  0  0  0  0  0  0  0
   -0.8984   -6.8985    2.6255 C   0  0  0  0  0  0  0  0  0  0  0  0
   -2.2515   -6.5916    2.7830 C   0  0  0  0  0  0  0  0  0  0  0  0
   -2.7188   -6.0725    3.9820 C   0  0  0  0  0  0  0  0  0  0  0  0
   -1.8355   -5.9544    5.0572 C   0  0  0  0  0  0  0  0  0  0  0  0
   -4.0028   -5.6571    4.2025 O   0  0  0  0  0  0  0  0  0  0  0  0
   -4.8507   -5.5066    3.0511 C   0  0  2  0  0  0  0  0  0  0  0  0
   -4.6473   -6.5724    2.0076 C   0  0  0  0  0  0  0  0  0  0  0  0
   -5.5382   -7.1774    1.4309 O   0  0  0  0  0  0  0  0  0  0  0  0
   -3.1961   -6.8240    1.6860 C   0  0  0  0  0  0  0  0  0  0  0  0
   -2.8403   -7.1893    0.5779 O   0  0  0  0  0  0  0  0  0  0  0  0
   -4.7187   -4.1304    2.4562 C   0  0  1  0  0  0  0  0  0  0  0  0
   -3.4080   -3.7304    1.9980 O   0  0  0  0  0  0  0  0  0  0  0  0
   -5.7714   -3.7273    1.5760 O   0  0  0  0  0  0  0  0  0  0  0  0
   -5.6920   -3.0943    2.7554 C   0  0  0  0  0  0  0  0  0  0  0  0
   -6.5255   -2.9744    3.6368 O   0  0  0  0  0  0  0  0  0  0  0  0
    2.7592   -2.6278    1.4274 C   0  0  0  0  0  0  0  0  0  0  0  0
    2.8133   -2.3352    2.6135 O   0  0  0  0  0  0  0  0  0  0  0  0
    2.6242   -1.5485    0.3781 C   0  0  0  0  0  0  0  0  0  0  0  0
    2.2726   -0.4200    0.6841 O   0  0  0  0  0  0  0  0  0  0  0  0
    2.8748   -1.8914   -1.0705 C   0  0  0  0  0  0  0  0  0  0  0  0
    3.3030   -1.0755   -1.8669 O   0  0  0  0  0  0  0  0  0  0  0  0
  1  2  1  0  0  0  0
  2  3  2  0  0  0  0
  3  4  1  0  0  0  0
  3 50  1  0  0  0  0
  4  5  1  0  0  0  0
  5  6  1  1  0  0  0
  5 46  1  0  0  0  0
  6  7  1  0  0  0  0
  7  8  2  0  0  0  0
  7 12  1  0  0  0  0
  8  9  1  0  0  0  0
  8 25  1  0  0  0  0
  9 10  1  0  0  0  0
 10 11  2  0  0  0  0
 10 21  1  0  0  0  0
 11 12  1  0  0  0  0
 11 13  1  0  0  0  0
 13 14  1  0  0  0  0
 13 19  1  0  0  0  0
 14 15  1  0  0  0  0
 15 16  2  0  0  0  0
 15 17  1  0  0  0  0
 17 18  1  0  0  0  0
 18 19  1  0  0  0  0
 19 20  2  0  0  0  0
 20 21  1  0  0  0  0
 20 22  1  0  0  0  0
 22 23  1  0  0  0  0
 22 24  1  0  0  0  0
 23 24  1  0  0  0  0
 25 26  2  0  0  0  0
 25 30  1  0  0  0  0
 26 27  1  0  0  0  0
 27 28  2  0  0  0  0
 28 29  1  0  0  0  0
 29 30  2  0  0  0  0
 29 34  1  0  0  0  0
 30 31  1  0  0  0  0
 31 32  2  0  0  0  0
 32 33  1  0  0  0  0
 32 39  1  0  0  0  0
 33 34  2  0  0  0  0
 33 35  1  0  0  0  0
 36 35  1  1  0  0  0
 36 37  1  0  0  0  0
 36 41  1  0  0  0  0
 37 38  2  0  0  0  0
 37 39  1  0  0  0  0
 39 40  2  0  0  0  0
 41 42  1  6  0  0  0
 41 43  1  0  0  0  0
 41 44  1  0  0  0  0
 43 44  1  0  0  0  0
 44 45  2  0  0  0  0
 46 47  2  0  0  0  0
 46 48  1  0  0  0  0
 48 49  2  0  0  0  0
 48 50  1  0  0  0  0
 50 51  2  0  0  0  0
M  END
$$$$