
 OpenBabel09212011543D

 49 56  0  0  1  0  0  0  0  0999 V2000
   -0.1937   -5.3727   -2.9542 O   0  0  0  0  0  0  0  0  0  0  0  0
   -0.1711   -5.7399   -1.5673 C   0  0  0  0  0  0  0  0  0  0  0  0
    0.7317   -4.7752   -0.7959 C   0  0  2  0  0  0  0  0  0  0  0  0
    2.0697   -4.8871   -1.2937 O   0  0  0  0  0  0  0  0  0  0  0  0
    2.8944   -3.7667   -0.9603 C   0  0  2  0  0  0  0  0  0  0  0  0
    4.2052   -3.8707   -1.5357 O   0  0  0  0  0  0  0  0  0  0  0  0
    4.2850   -3.9614   -2.9252 C   0  0  0  0  0  0  0  0  0  0  0  0
    5.3681   -3.5459   -3.6121 C   0  0  0  0  0  0  0  0  0  0  0  0
    5.5421   -3.7185   -4.9818 O   0  0  0  0  0  0  0  0  0  0  0  0
    4.5899   -4.3963   -5.7056 C   0  0  0  0  0  0  0  0  0  0  0  0
    3.4089   -4.8224   -5.1267 C   0  0  0  0  0  0  0  0  0  0  0  0
    3.1662   -4.6219   -3.6727 C   0  0  0  0  0  0  0  0  0  0  0  0
    2.4770   -5.4645   -5.9432 C   0  0  0  0  0  0  0  0  0  0  0  0
    1.2376   -5.8692   -5.4349 N   0  0  0  0  0  0  0  0  0  0  0  0
    0.3241   -6.5973   -6.1262 C   0  0  0  0  0  0  0  0  0  0  0  0
   -0.7258   -6.9576   -5.5981 O   0  0  0  0  0  0  0  0  0  0  0  0
    0.6356   -6.9227   -7.4048 N   0  0  0  0  0  0  0  0  0  0  0  0
    1.7560   -6.3786   -8.1454 C   0  0  0  0  0  0  0  0  0  0  0  0
    2.7608   -5.7073   -7.2773 C   0  0  0  0  0  0  0  0  0  0  0  0
    3.9766   -5.2462   -7.7380 C   0  0  0  0  0  0  0  0  0  0  0  0
    4.8960   -4.5960   -7.0060 N   0  0  0  0  0  0  0  0  0  0  0  0
    4.3496   -5.4202   -9.0302 O   0  0  0  0  0  0  0  0  0  0  0  0
    6.5029   -2.8331   -3.0107 C   0  0  0  0  0  0  0  0  0  0  0  0
    6.3417   -1.4816   -2.9844 N   0  0  0  0  0  0  0  0  0  0  0  0
    7.4129   -0.7390   -2.6535 C   0  0  0  0  0  0  0  0  0  0  0  0
    8.6503   -1.2755   -2.3525 C   0  0  0  0  0  0  0  0  0  0  0  0
    8.8095   -2.6644   -2.3678 C   0  0  0  0  0  0  0  0  0  0  0  0
    7.7121   -3.4937   -2.6890 C   0  0  0  0  0  0  0  0  0  0  0  0
    7.9134   -4.9001   -2.7026 C   0  0  0  0  0  0  0  0  0  0  0  0
    9.1737   -5.4463   -2.4239 C   0  0  0  0  0  0  0  0  0  0  0  0
   10.2463   -4.6149   -2.1300 C   0  0  0  0  0  0  0  0  0  0  0  0
   10.0631   -3.2345   -2.1010 C   0  0  0  0  0  0  0  0  0  0  0  0
   11.5256   -5.0481   -1.9312 O   0  0  0  0  0  0  0  0  0  0  0  0
   11.6445   -6.3784   -1.4063 C   0  0  1  0  0  0  0  0  0  0  0  0
   10.8200   -7.3633   -2.2025 C   0  0  0  0  0  0  0  0  0  0  0  0
   11.2076   -8.4732   -2.5644 O   0  0  0  0  0  0  0  0  0  0  0  0
    9.4066   -6.8973   -2.4815 C   0  0  0  0  0  0  0  0  0  0  0  0
    8.5157   -7.6935   -2.7307 O   0  0  0  0  0  0  0  0  0  0  0  0
   13.1125   -6.7843   -1.3575 C   0  0  1  0  0  0  0  0  0  0  0  0
   13.3580   -8.1199   -0.8403 O   0  0  0  0  0  0  0  0  0  0  0  0
   14.1193   -6.3063   -2.3703 C   0  0  0  0  0  0  0  0  0  0  0  0
   14.1482   -5.8018   -0.9963 C   0  0  0  0  0  0  0  0  0  0  0  0
   14.0308   -4.6669   -0.6030 O   0  0  0  0  0  0  0  0  0  0  0  0
    2.9993   -3.6851    0.5628 C   0  0  0  0  0  0  0  0  0  0  0  0
    3.6027   -2.8292    1.1940 O   0  0  0  0  0  0  0  0  0  0  0  0
    2.1600   -4.7289    1.2777 C   0  0  0  0  0  0  0  0  0  0  0  0
    2.5519   -5.2419    2.3139 O   0  0  0  0  0  0  0  0  0  0  0  0
    0.8291   -5.1345    0.6640 C   0  0  0  0  0  0  0  0  0  0  0  0
   -0.0685   -5.6253    1.3298 O   0  0  0  0  0  0  0  0  0  0  0  0
  1  2  1  0  0  0  0
  3  4  1  0  0  0  0
  3 48  1  0  0  0  0
  3  2  1  6  0  0  0
  4  5  1  0  0  0  0
  5  6  1  6  0  0  0
  5 44  1  0  0  0  0
  6  7  1  0  0  0  0
  7  8  2  0  0  0  0
  7 12  1  0  0  0  0
  8  9  1  0  0  0  0
  8 23  1  0  0  0  0
  9 10  1  0  0  0  0
 10 11  2  0  0  0  0
 10 21  1  0  0  0  0
 11 12  1  0  0  0  0
 11 13  1  0  0  0  0
 13 14  1  0  0  0  0
 13 19  2  0  0  0  0
 14 15  1  0  0  0  0
 15 16  2  0  0  0  0
 15 17  1  0  0  0  0
 17 18  1  0  0  0  0
 18 19  1  0  0  0  0
 19 20  1  0  0  0  0
 20 21  2  0  0  0  0
 20 22  1  0  0  0  0
 23 24  2  0  0  0  0
 23 28  1  0  0  0  0
 24 25  1  0  0  0  0
 25 26  2  0  0  0  0
 26 27  1  0  0  0  0
 27 28  2  0  0  0  0
 27 32  1  0  0  0  0
 28 29  1  0  0  0  0
 29 30  2  0  0  0  0
 30 31  1  0  0  0  0
 30 37  1  0  0  0  0
 31 32  2  0  0  0  0
 31 33  1  0  0  0  0
 34 33  1  6  0  0  0
 34 35  1  0  0  0  0
 34 39  1  0  0  0  0
 35 36  2  0  0  0  0
 35 37  1  0  0  0  0
 37 38  2  0  0  0  0
 39 40  1  1  0  0  0
 39 41  1  0  0  0  0
 39 42  1  0  0  0  0
 41 42  1  0  0  0  0
 42 43  2  0  0  0  0
 44 45  2  0  0  0  0
 44 46  1  0  0  0  0
 46 47  2  0  0  0  0
 46 48  1  0  0  0  0
 48 49  2  0  0  0  0
M  END
$$$$