
 OpenBabel09222003483D

 52 60  0  0  1  0  0  0  0  0999 V2000
    0.7365   -1.9970   -1.3920 C   0  0  0  0  0  0  0  0  0  0  0  0
    1.9959   -1.9478   -0.9541 C   0  0  0  0  0  0  0  0  0  0  0  0
    2.5979   -0.7662   -0.5827 O   0  0  0  0  0  0  0  0  0  0  0  0
    3.9839   -0.7566   -0.4862 C   0  0  0  0  0  0  0  0  0  0  0  0
    4.6249   -1.9320   -0.2933 N   0  0  0  0  0  0  0  0  0  0  0  0
    5.9709   -1.9236   -0.2779 C   0  0  0  0  0  0  0  0  0  0  0  0
    6.5520   -3.1414   -0.0285 O   0  0  0  0  0  0  0  0  0  0  0  0
    7.9206   -3.3472   -0.2806 C   0  0  0  0  0  0  0  0  0  0  0  0
    8.7612   -2.2973   -0.4655 C   0  0  0  0  0  0  0  0  0  0  0  0
    8.2109   -0.8875   -0.4228 C   0  0  0  0  0  0  0  0  0  0  0  0
    6.7244   -0.7843   -0.4583 C   0  0  0  0  0  0  0  0  0  0  0  0
    6.0348    0.4252   -0.6033 C   0  0  0  0  0  0  0  0  0  0  0  0
    4.6407    0.4596   -0.6043 C   0  0  0  0  0  0  0  0  0  0  0  0
    3.9446    1.7638   -0.8193 C   0  0  0  0  0  0  0  0  0  0  0  0
    4.7945    2.8964   -0.5248 N   0  0  0  0  0  0  0  0  0  0  0  0
    6.1423    2.8661   -0.6686 C   0  0  0  0  0  0  0  0  0  0  0  0
    6.8154    3.8906   -0.6964 O   0  0  0  0  0  0  0  0  0  0  0  0
    6.7257    1.6384   -0.7335 N   0  0  0  0  0  0  0  0  0  0  0  0
   10.0950   -2.4474   -0.8362 O   0  0  0  0  0  0  0  0  0  0  0  0
   11.0549   -1.4659   -0.3981 C   0  0  1  0  0  0  0  0  0  0  0  0
   12.1426   -1.4288   -1.3315 O   0  0  0  0  0  0  0  0  0  0  0  0
   13.1118   -0.3858   -1.1236 C   0  0  1  0  0  0  0  0  0  0  0  0
   12.7818    0.8082   -1.9730 C   0  0  0  0  0  0  0  0  0  0  0  0
   12.8303    0.5718   -3.3823 O   0  0  0  0  0  0  0  0  0  0  0  0
   13.8679    1.3420   -2.7338 O   0  0  0  0  0  0  0  0  0  0  0  0
   13.3394   -0.0205    0.3291 C   0  0  0  0  0  0  0  0  0  0  0  0
   13.6866    1.0657    0.7629 O   0  0  0  0  0  0  0  0  0  0  0  0
   12.9373   -1.1181    1.2632 C   0  0  0  0  0  0  0  0  0  0  0  0
   13.6673   -1.4419    2.1809 O   0  0  0  0  0  0  0  0  0  0  0  0
   11.5654   -1.7056    1.0361 C   0  0  0  0  0  0  0  0  0  0  0  0
   10.9165   -2.1712    1.9620 O   0  0  0  0  0  0  0  0  0  0  0  0
    8.1891   -4.8233   -0.3983 C   0  0  0  0  0  0  0  0  0  0  0  0
    7.1132   -5.4632   -0.9447 N   0  0  0  0  0  0  0  0  0  0  0  0
    7.1356   -6.7977   -1.0908 C   0  0  0  0  0  0  0  0  0  0  0  0
    8.2119   -7.5787   -0.7444 C   0  0  0  0  0  0  0  0  0  0  0  0
    9.3393   -6.9618   -0.2163 C   0  0  0  0  0  0  0  0  0  0  0  0
    9.3462   -5.5602   -0.0040 C   0  0  0  0  0  0  0  0  0  0  0  0
   10.5239   -5.0484    0.5772 C   0  0  0  0  0  0  0  0  0  0  0  0
   11.6744   -5.8253    0.7802 C   0  0  0  0  0  0  0  0  0  0  0  0
   11.6572   -7.1783    0.5054 C   0  0  0  0  0  0  0  0  0  0  0  0
   10.4686   -7.7514    0.0714 C   0  0  0  0  0  0  0  0  0  0  0  0
   12.7374   -8.0106    0.5763 O   0  0  0  0  0  0  0  0  0  0  0  0
   14.0353   -7.3933    0.5950 C   0  0  2  0  0  0  0  0  0  0  0  0
   14.0942   -6.1411    1.4305 C   0  0  0  0  0  0  0  0  0  0  0  0
   14.9889   -5.8526    2.2101 O   0  0  0  0  0  0  0  0  0  0  0  0
   12.9447   -5.2040    1.1697 C   0  0  0  0  0  0  0  0  0  0  0  0
   13.1097   -3.9965    1.1607 O   0  0  0  0  0  0  0  0  0  0  0  0
   14.5319   -7.1379   -0.8059 C   0  0  1  0  0  0  0  0  0  0  0  0
   13.7159   -6.2848   -1.6430 O   0  0  0  0  0  0  0  0  0  0  0  0
   15.9519   -6.8817   -0.8930 O   0  0  0  0  0  0  0  0  0  0  0  0
   15.4921   -7.9836   -1.4699 C   0  0  0  0  0  0  0  0  0  0  0  0
   15.7842   -9.1655   -1.3726 O   0  0  0  0  0  0  0  0  0  0  0  0
  1  2  2  0  0  0  0
  2  3  1  0  0  0  0
  3  4  1  0  0  0  0
  4  5  2  0  0  0  0
  4 13  1  0  0  0  0
  5  6  1  0  0  0  0
  6  7  1  0  0  0  0
  6 11  2  0  0  0  0
  7  8  1  0  0  0  0
  8  9  2  0  0  0  0
  8 32  1  0  0  0  0
  9 10  1  0  0  0  0
  9 19  1  0  0  0  0
 10 11  1  0  0  0  0
 11 12  1  0  0  0  0
 12 13  2  0  0  0  0
 12 18  1  0  0  0  0
 13 14  1  0  0  0  0
 14 15  1  0  0  0  0
 15 16  1  0  0  0  0
 16 17  2  0  0  0  0
 16 18  1  0  0  0  0
 20 19  1  1  0  0  0
 20 21  1  0  0  0  0
 20 30  1  0  0  0  0
 21 22  1  0  0  0  0
 22 26  1  0  0  0  0
 22 23  1  6  0  0  0
 23 24  1  0  0  0  0
 23 25  1  0  0  0  0
 24 25  1  0  0  0  0
 26 27  2  0  0  0  0
 26 28  1  0  0  0  0
 28 29  2  0  0  0  0
 28 30  1  0  0  0  0
 30 31  2  0  0  0  0
 32 33  2  0  0  0  0
 32 37  1  0  0  0  0
 33 34  1  0  0  0  0
 34 35  2  0  0  0  0
 35 36  1  0  0  0  0
 36 37  2  0  0  0  0
 36 41  1  0  0  0  0
 37 38  1  0  0  0  0
 38 39  2  0  0  0  0
 39 40  1  0  0  0  0
 39 46  1  0  0  0  0
 40 41  2  0  0  0  0
 40 42  1  0  0  0  0
 43 42  1  6  0  0  0
 43 44  1  0  0  0  0
 43 48  1  0  0  0  0
 44 45  2  0  0  0  0
 44 46  1  0  0  0  0
 46 47  2  0  0  0  0
 48 49  1  6  0  0  0
 48 50  1  0  0  0  0
 48 51  1  0  0  0  0
 50 51  1  0  0  0  0
 51 52  2  0  0  0  0
M  END
$$$$