
 OpenBabel11222003353D

 52 60  0  0  1  0  0  0  0  0999 V2000
    1.0545    5.3855   -0.1398 O   0  0  0  0  0  0  0  0  0  0  0  0
    1.3537    4.0505   -0.0211 C   0  0  0  0  0  0  0  0  0  0  0  0
    1.5899    3.2629   -1.0764 C   0  0  0  0  0  0  0  0  0  0  0  0
    1.5031    3.7532   -2.3672 O   0  0  0  0  0  0  0  0  0  0  0  0
    2.3830    3.1247   -3.2888 C   0  0  2  0  0  0  0  0  0  0  0  0
    2.2989    3.7140   -4.6076 O   0  0  0  0  0  0  0  0  0  0  0  0
    2.6862    5.0293   -4.8156 C   0  0  0  0  0  0  0  0  0  0  0  0
    3.1015    5.4566   -6.0343 C   0  0  0  0  0  0  0  0  0  0  0  0
    3.3439    6.8165   -6.2903 O   0  0  0  0  0  0  0  0  0  0  0  0
    3.0830    7.7823   -5.3170 C   0  0  0  0  0  0  0  0  0  0  0  0
    2.7388    7.4257   -4.0692 C   0  0  0  0  0  0  0  0  0  0  0  0
    2.5866    5.9953   -3.6611 C   0  0  0  0  0  0  0  0  0  0  0  0
    2.4043    8.4355   -3.0122 C   0  0  3  0  0  0  0  0  0  0  0  0
    3.3702    8.3507   -1.9852 O   0  0  0  0  0  0  0  0  0  0  0  0
    3.1448    9.1680   -0.9172 C   0  0  0  0  0  0  0  0  0  0  0  0
    3.6899    8.9863    0.1576 O   0  0  0  0  0  0  0  0  0  0  0  0
    2.2447   10.1621   -1.1357 O   0  0  0  0  0  0  0  0  0  0  0  0
    2.1539   10.7687   -2.4212 C   0  0  3  0  0  0  0  0  0  0  0  0
    2.4835    9.8216   -3.5208 C   0  0  0  0  0  0  0  0  0  0  0  0
    2.8200   10.1228   -4.7945 C   0  0  0  0  0  0  0  0  0  0  0  0
    3.1728    9.1100   -5.6793 O   0  3  0  0  0  0  0  0  0  0  0  0
    2.8345   11.4999   -5.3504 C   0  0  0  0  0  0  0  0  0  0  0  0
    4.0337   12.0621   -5.8985 O   0  0  0  0  0  0  0  0  0  0  0  0
    2.9485   11.7005   -6.7726 O   0  0  0  0  0  0  0  0  0  0  0  0
    0.8116   11.1408   -2.6634 O   0  0  0  0  0  0  0  0  0  0  0  0
    3.3771    4.5383   -7.1957 C   0  0  0  0  0  0  0  0  0  0  0  0
    2.5774    3.4046   -7.3819 C   0  0  0  0  0  0  0  0  0  0  0  0
    2.8307    2.5209   -8.3504 N   0  3  0  0  0  0  0  0  0  0  0  0
    2.0439    1.4336   -8.4675 F   0  0  0  0  0  0  0  0  0  0  0  0
    3.8234    2.6676   -9.1974 N   0  0  0  0  0  0  0  0  0  0  0  0
    4.6260    3.7278   -9.1036 C   0  0  0  0  0  0  0  0  0  0  0  0
    4.4534    4.7220   -8.1156 C   0  0  0  0  0  0  0  0  0  0  0  0
    5.3861    5.7988   -8.1142 C   0  0  0  0  0  0  0  0  0  0  0  0
    6.4427    5.8750   -9.0324 C   0  0  0  0  0  0  0  0  0  0  0  0
    7.4181    7.0253   -9.0219 C   0  0  0  0  0  0  0  0  0  0  0  0
    8.7812    6.5527   -9.5027 C   0  0  0  0  0  0  0  0  0  0  0  0
    8.6072    5.7481  -10.7649 C   0  0  0  0  0  0  0  0  0  0  0  0
    7.6037    4.9520  -10.9728 N   0  0  0  0  0  0  0  0  0  0  0  0
    6.5874    4.8860  -10.0045 C   0  0  0  0  0  0  0  0  0  0  0  0
    5.6727    3.8317  -10.0166 C   0  0  0  0  0  0  0  0  0  0  0  0
    5.8097    2.8644  -10.9397 F   0  0  0  0  0  0  0  0  0  0  0  0
    9.6460    5.8609  -11.7946 C   0  0  1  0  0  0  0  0  0  0  0  0
    9.4631    6.9327  -12.7485 O   0  0  0  0  0  0  0  0  0  0  0  0
   10.9758    5.7028  -11.2888 O   0  0  0  0  0  0  0  0  0  0  0  0
   10.5615    4.7940  -12.1979 C   0  0  0  0  0  0  0  0  0  0  0  0
   11.0313    4.5226  -13.2745 O   0  0  0  0  0  0  0  0  0  0  0  0
    2.0033    1.6566   -3.4322 C   0  0  0  0  0  0  0  0  0  0  0  0
    1.9312    1.0614   -4.5007 O   0  0  0  0  0  0  0  0  0  0  0  0
    1.7505    0.9862   -2.0945 C   0  0  0  0  0  0  0  0  0  0  0  0
    1.4196   -0.1844   -2.0380 O   0  0  0  0  0  0  0  0  0  0  0  0
    1.8838    1.8239   -0.8370 C   0  0  0  0  0  0  0  0  0  0  0  0
    2.2585    1.3617    0.2236 O   0  0  0  0  0  0  0  0  0  0  0  0
  1  2  1  0  0  0  0
  2  3  2  0  0  0  0
  3  4  1  0  0  0  0
  3 51  1  0  0  0  0
  4  5  1  0  0  0  0
  5  6  1  6  0  0  0
  5 47  1  0  0  0  0
  6  7  1  0  0  0  0
  7  8  2  0  0  0  0
  7 12  1  0  0  0  0
  8  9  1  0  0  0  0
  8 26  1  0  0  0  0
  9 10  1  0  0  0  0
 10 11  2  0  0  0  0
 10 21  1  0  0  0  0
 11 12  1  0  0  0  0
 11 13  1  0  0  0  0
 13 14  1  0  0  0  0
 13 19  1  0  0  0  0
 14 15  1  0  0  0  0
 15 16  2  0  0  0  0
 15 17  1  0  0  0  0
 17 18  1  0  0  0  0
 18 19  1  0  0  0  0
 18 25  1  0  0  0  0
 19 20  2  0  0  0  0
 20 21  1  0  0  0  0
 20 22  1  0  0  0  0
 22 23  1  0  0  0  0
 22 24  1  0  0  0  0
 23 24  1  0  0  0  0
 26 27  2  0  0  0  0
 26 32  1  0  0  0  0
 27 28  1  0  0  0  0
 28 29  1  0  0  0  0
 28 30  2  0  0  0  0
 30 31  1  0  0  0  0
 31 32  2  0  0  0  0
 31 40  1  0  0  0  0
 32 33  1  0  0  0  0
 33 34  2  0  0  0  0
 34 35  1  0  0  0  0
 34 39  1  0  0  0  0
 35 36  1  0  0  0  0
 36 37  1  0  0  0  0
 37 38  2  0  0  0  0
 38 39  1  0  0  0  0
 39 40  2  0  0  0  0
 40 41  1  0  0  0  0
 42 37  1  1  0  0  0
 42 43  1  0  0  0  0
 42 44  1  0  0  0  0
 42 45  1  0  0  0  0
 44 45  1  0  0  0  0
 45 46  2  0  0  0  0
 47 48  2  0  0  0  0
 47 49  1  0  0  0  0
 49 50  2  0  0  0  0
 49 51  1  0  0  0  0
 51 52  2  0  0  0  0
M  CHG  2  21   1  28   1
M  END
$$$$