
 OpenBabel11272002113D

 54 62  0  0  1  0  0  0  0  0999 V2000
    3.5875    3.6231   -1.2662 O   0  0  0  0  0  0  0  0  0  0  0  0
    3.3093    2.2820   -1.3655 C   0  0  0  0  0  0  0  0  0  0  0  0
    2.6073    1.7679   -2.3818 C   0  0  0  0  0  0  0  0  0  0  0  0
    2.0592    2.5708   -3.3656 O   0  0  0  0  0  0  0  0  0  0  0  0
    2.4392    2.1720   -4.6738 C   0  0  2  0  0  0  0  0  0  0  0  0
    1.8021    2.9617   -5.7172 O   0  0  0  0  0  0  0  0  0  0  0  0
    1.9745    4.3361   -5.7592 C   0  0  0  0  0  0  0  0  0  0  0  0
    1.7960    5.0180   -6.9138 C   0  0  0  0  0  0  0  0  0  0  0  0
    1.9131    6.4125   -6.9932 O   0  0  0  0  0  0  0  0  0  0  0  0
    2.0613    7.1658   -5.8188 C   0  0  0  0  0  0  0  0  0  0  0  0
    2.2143    6.5669   -4.6230 C   0  0  0  0  0  0  0  0  0  0  0  0
    2.2645    5.0741   -4.4740 C   0  0  0  0  0  0  0  0  0  0  0  0
    2.2551    7.3531   -3.3404 C   0  0  3  0  0  0  0  0  0  0  0  0
    3.4743    7.0761   -2.6442 O   0  0  0  0  0  0  0  0  0  0  0  0
    3.5477    7.6189   -1.4130 C   0  0  0  0  0  0  0  0  0  0  0  0
    4.3108    7.1923   -0.5562 O   0  0  0  0  0  0  0  0  0  0  0  0
    2.6773    8.6545   -1.2091 O   0  0  0  0  0  0  0  0  0  0  0  0
    2.4235    9.5434   -2.2875 C   0  0  3  0  0  0  0  0  0  0  0  0
    2.2739    8.8150   -3.5739 C   0  0  0  0  0  0  0  0  0  0  0  0
    2.1684    9.3641   -4.8096 C   0  0  0  0  0  0  0  0  0  0  0  0
    2.0321    8.5405   -5.9239 O   0  3  0  0  0  0  0  0  0  0  0  0
    2.1786   10.8184   -5.0777 C   0  0  3  0  0  0  0  0  0  0  0  0
    1.5159   11.2652   -6.2558 N   0  0  0  0  0  0  0  0  0  0  0  0
    2.7572   11.2306   -6.3138 N   0  0  0  0  0  0  0  0  0  0  0  0
    1.1654   10.1677   -2.0872 O   0  0  0  0  0  0  0  0  0  0  0  0
    1.4927    4.3467   -8.2093 C   0  0  0  0  0  0  0  0  0  0  0  0
    2.5595    3.8806   -8.9691 C   0  0  0  0  0  0  0  0  0  0  0  0
    2.3555    3.2645  -10.1386 N   0  3  0  0  0  0  0  0  0  0  0  0
    3.4192    2.8615  -10.8603 F   0  0  0  0  0  0  0  0  0  0  0  0
    1.1538    3.0555  -10.6350 N   0  0  0  0  0  0  0  0  0  0  0  0
    0.0712    3.4482   -9.9570 C   0  0  0  0  0  0  0  0  0  0  0  0
    0.1916    4.1223   -8.7182 C   0  0  0  0  0  0  0  0  0  0  0  0
   -0.9895    4.5368   -8.0690 C   0  0  0  0  0  0  0  0  0  0  0  0
   -2.2519    4.2639   -8.6170 C   0  0  0  0  0  0  0  0  0  0  0  0
   -3.4535    4.8192   -7.9849 C   0  0  0  0  0  0  0  0  0  0  0  0
   -3.3736    5.5013   -6.9764 O   0  0  0  0  0  0  0  0  0  0  0  0
   -4.7476    4.6074   -8.7330 C   0  0  0  0  0  0  0  0  0  0  0  0
   -5.6311    5.4499   -8.6980 O   0  0  0  0  0  0  0  0  0  0  0  0
   -4.7624    3.3470   -9.5620 C   0  0  1  0  0  0  0  0  0  0  0  0
   -3.5743    3.1860  -10.3611 O   0  0  0  0  0  0  0  0  0  0  0  0
   -2.3743    3.5436   -9.7950 C   0  0  0  0  0  0  0  0  0  0  0  0
   -1.2079    3.1933  -10.5046 C   0  0  0  0  0  0  0  0  0  0  0  0
   -1.3414    2.4100  -11.6773 N   0  0  0  0  0  0  0  0  0  0  0  0
   -5.0105    2.1370   -8.7042 C   0  0  1  0  0  0  0  0  0  0  0  0
   -4.0352    1.8568   -7.6802 O   0  0  0  0  0  0  0  0  0  0  0  0
   -6.3743    1.9795   -8.3024 O   0  0  0  0  0  0  0  0  0  0  0  0
   -5.8548    0.9641   -9.1630 C   0  0  3  0  0  0  0  0  0  0  0  0
   -5.5896   -0.2846   -8.5019 O   0  0  0  0  0  0  0  0  0  0  0  0
    2.0562    0.7337   -4.9959 C   0  0  0  0  0  0  0  0  0  0  0  0
    2.0227    0.2754   -6.1314 O   0  0  0  0  0  0  0  0  0  0  0  0
    1.7788   -0.1197   -3.7758 C   0  0  0  0  0  0  0  0  0  0  0  0
    1.0637   -1.1026   -3.8620 O   0  0  0  0  0  0  0  0  0  0  0  0
    2.3861    0.2995   -2.4524 C   0  0  0  0  0  0  0  0  0  0  0  0
    2.7126   -0.4990   -1.5948 O   0  0  0  0  0  0  0  0  0  0  0  0
  1  2  1  0  0  0  0
  2  3  2  0  0  0  0
  3  4  1  0  0  0  0
  3 53  1  0  0  0  0
  4  5  1  0  0  0  0
  5  6  1  6  0  0  0
  5 49  1  0  0  0  0
  6  7  1  0  0  0  0
  7  8  2  0  0  0  0
  7 12  1  0  0  0  0
  8  9  1  0  0  0  0
  8 26  1  0  0  0  0
  9 10  1  0  0  0  0
 10 11  2  0  0  0  0
 10 21  1  0  0  0  0
 11 12  1  0  0  0  0
 11 13  1  0  0  0  0
 13 14  1  0  0  0  0
 13 19  1  0  0  0  0
 14 15  1  0  0  0  0
 15 16  2  0  0  0  0
 15 17  1  0  0  0  0
 17 18  1  0  0  0  0
 18 19  1  0  0  0  0
 18 25  1  0  0  0  0
 19 20  2  0  0  0  0
 20 21  1  0  0  0  0
 20 22  1  0  0  0  0
 22 23  1  0  0  0  0
 22 24  1  0  0  0  0
 23 24  2  0  0  0  0
 26 27  2  0  0  0  0
 26 32  1  0  0  0  0
 27 28  1  0  0  0  0
 28 29  1  0  0  0  0
 28 30  2  0  0  0  0
 30 31  1  0  0  0  0
 31 32  2  0  0  0  0
 31 42  1  0  0  0  0
 32 33  1  0  0  0  0
 33 34  2  0  0  0  0
 34 35  1  0  0  0  0
 34 41  1  0  0  0  0
 35 36  2  0  0  0  0
 35 37  1  0  0  0  0
 37 38  2  0  0  0  0
 39 37  1  1  0  0  0
 39 40  1  0  0  0  0
 39 44  1  0  0  0  0
 40 41  1  0  0  0  0
 41 42  2  0  0  0  0
 42 43  1  0  0  0  0
 44 45  1  1  0  0  0
 44 46  1  0  0  0  0
 44 47  1  0  0  0  0
 46 47  1  0  0  0  0
 47 48  1  0  0  0  0
 49 50  2  0  0  0  0
 49 51  1  0  0  0  0
 51 52  2  0  0  0  0
 51 53  1  0  0  0  0
 53 54  2  0  0  0  0
M  CHG  2  21   1  28   1
M  END
$$$$