
 OpenBabel11232015043D

 54 62  0  0  1  0  0  0  0  0999 V2000
    5.6000   -3.7933    6.4512 O   0  0  0  0  0  0  0  0  0  0  0  0
    5.5703   -2.5181    5.9357 C   0  0  0  0  0  0  0  0  0  0  0  0
    4.9106   -2.1780    4.8209 C   0  0  0  0  0  0  0  0  0  0  0  0
    4.2369   -3.1087    4.0483 O   0  0  0  0  0  0  0  0  0  0  0  0
    2.9116   -2.6816    3.7332 C   0  0  2  0  0  0  0  0  0  0  0  0
    2.1806   -3.7141    3.0192 O   0  0  0  0  0  0  0  0  0  0  0  0
    1.9206   -4.9292    3.6461 C   0  0  0  0  0  0  0  0  0  0  0  0
    1.3015   -5.9559    3.0040 C   0  0  0  0  0  0  0  0  0  0  0  0
    1.1447   -7.2143    3.6303 O   0  0  0  0  0  0  0  0  0  0  0  0
    1.8892   -7.5078    4.7758 C   0  0  0  0  0  0  0  0  0  0  0  0
    2.4602   -6.5264    5.4818 C   0  0  0  0  0  0  0  0  0  0  0  0
    2.3237   -5.1015    5.0869 C   0  0  0  0  0  0  0  0  0  0  0  0
    3.3549   -6.8145    6.6396 C   0  0  3  0  0  0  0  0  0  0  0  0
    2.9293   -6.0698    7.7585 O   0  0  0  0  0  0  0  0  0  0  0  0
    3.8091   -6.1054    8.7928 C   0  0  0  0  0  0  0  0  0  0  0  0
    3.9854   -5.1471    9.5240 O   0  0  0  0  0  0  0  0  0  0  0  0
    4.4379   -7.3001    8.9884 O   0  0  0  0  0  0  0  0  0  0  0  0
    4.0977   -8.3869    8.2885 C   0  0  0  0  0  0  0  0  0  0  0  0
    4.4391   -9.5353    8.5796 O   0  0  0  0  0  0  0  0  0  0  0  0
    3.3359   -8.2401    7.0530 C   0  0  0  0  0  0  0  0  0  0  0  0
    2.7229   -9.2338    6.3469 C   0  0  0  0  0  0  0  0  0  0  0  0
    2.0442   -8.8317    5.1751 N   0  0  0  0  0  0  0  0  0  0  0  0
    2.6474  -10.6953    6.6645 C   0  0  0  0  0  0  0  0  0  0  0  0
    3.2951  -11.3692    7.8281 N   0  3  0  0  0  0  0  0  0  0  0  0
    3.9142  -11.4488    6.9246 N   0  3  0  0  0  0  0  0  0  0  0  0
    0.7011   -5.8453    1.6263 C   0  0  0  0  0  0  0  0  0  0  0  0
    0.1522   -4.6191    1.2367 C   0  0  0  0  0  0  0  0  0  0  0  0
   -0.3892   -4.4436    0.0291 N   0  3  0  0  0  0  0  0  0  0  0  0
   -0.8949   -3.2370   -0.2924 F   0  0  0  0  0  0  0  0  0  0  0  0
   -0.4548   -5.4068   -0.8616 N   0  0  0  0  0  0  0  0  0  0  0  0
    0.0187   -6.6200   -0.5683 C   0  0  0  0  0  0  0  0  0  0  0  0
    0.6019   -6.9083    0.6852 C   0  0  0  0  0  0  0  0  0  0  0  0
    1.0385   -8.2402    0.9019 C   0  0  0  0  0  0  0  0  0  0  0  0
    0.9050   -9.2417   -0.0711 C   0  0  0  0  0  0  0  0  0  0  0  0
    1.2676  -10.6232    0.2596 C   0  0  0  0  0  0  0  0  0  0  0  0
    1.6561  -10.9195    1.3831 O   0  0  0  0  0  0  0  0  0  0  0  0
    1.0554  -11.6521   -0.8279 C   0  0  0  0  0  0  0  0  0  0  0  0
    0.9938  -12.8374   -0.5382 O   0  0  0  0  0  0  0  0  0  0  0  0
    0.9703  -11.0786   -2.2293 C   0  0  1  0  0  0  0  0  0  0  0  0
    0.2522   -9.8358   -2.3385 O   0  0  0  0  0  0  0  0  0  0  0  0
    0.3852   -8.9431   -1.3128 C   0  0  0  0  0  0  0  0  0  0  0  0
   -0.0639   -7.6377   -1.5340 C   0  0  0  0  0  0  0  0  0  0  0  0
   -0.6178   -7.3226   -2.7539 O   0  0  0  0  0  0  0  0  0  0  0  0
    2.3368  -10.9400   -2.8190 C   0  0  1  0  0  0  0  0  0  0  0  0
    3.2531  -10.0581   -2.1173 O   0  0  0  0  0  0  0  0  0  0  0  0
    2.9008  -12.1483   -3.3130 O   0  0  0  0  0  0  0  0  0  0  0  0
    2.6571  -11.1897   -4.2291 C   0  0  0  0  0  0  0  0  0  0  0  0
    3.4278  -10.5751   -4.9343 O   0  0  0  0  0  0  0  0  0  0  0  0
    2.9267   -1.4296    2.8623 C   0  0  0  0  0  0  0  0  0  0  0  0
    2.0344   -1.1273    2.0809 O   0  0  0  0  0  0  0  0  0  0  0  0
    4.1422   -0.5529    3.0991 C   0  0  0  0  0  0  0  0  0  0  0  0
    4.5214    0.2298    2.2474 O   0  0  0  0  0  0  0  0  0  0  0  0
    4.9201   -0.7545    4.3843 C   0  0  0  0  0  0  0  0  0  0  0  0
    5.4155    0.1617    5.0099 O   0  0  0  0  0  0  0  0  0  0  0  0
  1  2  1  0  0  0  0
  2  3  2  0  0  0  0
  3  4  1  0  0  0  0
  3 53  1  0  0  0  0
  4  5  1  0  0  0  0
  5  6  1  6  0  0  0
  5 49  1  0  0  0  0
  6  7  1  0  0  0  0
  7  8  2  0  0  0  0
  7 12  1  0  0  0  0
  8  9  1  0  0  0  0
  8 26  1  0  0  0  0
  9 10  1  0  0  0  0
 10 11  2  0  0  0  0
 10 22  1  0  0  0  0
 11 12  1  0  0  0  0
 11 13  1  0  0  0  0
 13 14  1  0  0  0  0
 13 20  1  0  0  0  0
 14 15  1  0  0  0  0
 15 16  2  0  0  0  0
 15 17  1  0  0  0  0
 17 18  1  0  0  0  0
 18 19  2  0  0  0  0
 18 20  1  0  0  0  0
 20 21  2  0  0  0  0
 21 22  1  0  0  0  0
 21 23  1  0  0  0  0
 23 24  1  0  0  0  0
 23 25  1  0  0  0  0
 24 25  3  0  0  0  0
 26 27  2  0  0  0  0
 26 32  1  0  0  0  0
 27 28  1  0  0  0  0
 28 29  1  0  0  0  0
 28 30  2  0  0  0  0
 30 31  1  0  0  0  0
 31 32  2  0  0  0  0
 31 42  1  0  0  0  0
 32 33  1  0  0  0  0
 33 34  2  0  0  0  0
 34 35  1  0  0  0  0
 34 41  1  0  0  0  0
 35 36  2  0  0  0  0
 35 37  1  0  0  0  0
 37 38  2  0  0  0  0
 39 37  1  1  0  0  0
 39 40  1  0  0  0  0
 39 44  1  0  0  0  0
 40 41  1  0  0  0  0
 41 42  2  0  0  0  0
 42 43  1  0  0  0  0
 44 45  1  1  0  0  0
 44 46  1  0  0  0  0
 44 47  1  0  0  0  0
 46 47  1  0  0  0  0
 47 48  2  0  0  0  0
 49 50  2  0  0  0  0
 49 51  1  0  0  0  0
 51 52  2  0  0  0  0
 51 53  1  0  0  0  0
 53 54  2  0  0  0  0
M  CHG  3  24   1  25   1  28   1
M  END
$$$$