
 OpenBabel11212022023D

 54 62  0  0  1  0  0  0  0  0999 V2000
    2.5886    1.0841   -4.1138 O   0  0  0  0  0  0  0  0  0  0  0  0
    3.0647    0.9101   -3.0677 C   0  0  0  0  0  0  0  0  0  0  0  0
    3.6722    0.5996   -1.9490 C   0  0  0  0  0  0  0  0  0  0  0  0
    4.5206   -0.4810   -2.0531 O   0  0  0  0  0  0  0  0  0  0  0  0
    5.3292   -0.8380   -0.9407 C   0  0  2  0  0  0  0  0  0  0  0  0
    5.8340   -2.1895   -1.1168 O   0  0  0  0  0  0  0  0  0  0  0  0
    6.6461   -2.4750   -2.2118 C   0  0  0  0  0  0  0  0  0  0  0  0
    6.7493   -3.7266   -2.7362 C   0  0  0  0  0  0  0  0  0  0  0  0
    7.5847   -3.9776   -3.8494 O   0  0  0  0  0  0  0  0  0  0  0  0
    8.3787   -2.9668   -4.4081 C   0  0  0  0  0  0  0  0  0  0  0  0
    8.3867   -1.7374   -3.8723 C   0  0  0  0  0  0  0  0  0  0  0  0
    7.4735   -1.3421   -2.7642 C   0  0  0  0  0  0  0  0  0  0  0  0
    9.2706   -0.6371   -4.3762 C   0  0  3  0  0  0  0  0  0  0  0  0
   10.1988   -0.3568   -3.3454 O   0  0  0  0  0  0  0  0  0  0  0  0
   11.1912    0.5388   -3.5929 C   0  0  0  0  0  0  0  0  0  0  0  0
   11.8385    1.0254   -2.6806 O   0  0  0  0  0  0  0  0  0  0  0  0
   11.4284    0.8278   -4.8942 O   0  0  0  0  0  0  0  0  0  0  0  0
   10.8770    0.1105   -5.9947 C   0  0  3  0  0  0  0  0  0  0  0  0
   10.0457   -1.0448   -5.5616 C   0  0  0  0  0  0  0  0  0  0  0  0
    9.9618   -2.2813   -6.1027 C   0  0  0  0  0  0  0  0  0  0  0  0
    9.1503   -3.2557   -5.5202 O   0  3  0  0  0  0  0  0  0  0  0  0
   10.7248   -2.6989   -7.3009 C   0  0  0  0  0  0  0  0  0  0  0  0
   12.0239   -3.2885   -7.1727 O   0  0  0  0  0  0  0  0  0  0  0  0
   10.9067   -4.0937   -7.5968 O   0  0  0  0  0  0  0  0  0  0  0  0
    9.9913    0.9623   -6.6941 O   0  0  0  0  0  0  0  0  0  0  0  0
    6.0088   -4.9469   -2.2118 C   0  0  0  0  0  0  0  0  0  0  0  0
    5.7194   -5.0409   -0.8453 C   0  0  0  0  0  0  0  0  0  0  0  0
    5.0373   -6.0753   -0.3382 N   0  3  0  0  0  0  0  0  0  0  0  0
    4.8011   -6.1181    0.9879 F   0  0  0  0  0  0  0  0  0  0  0  0
    4.5788   -7.0589   -1.0811 N   0  0  0  0  0  0  0  0  0  0  0  0
    4.8064   -7.0595   -2.3927 C   0  0  0  0  0  0  0  0  0  0  0  0
    5.5609   -6.0390   -3.0174 C   0  0  0  0  0  0  0  0  0  0  0  0
    5.7723   -6.1771   -4.4095 C   0  0  0  0  0  0  0  0  0  0  0  0
    5.1710   -7.1963   -5.1614 C   0  0  0  0  0  0  0  0  0  0  0  0
    5.2990   -7.1747   -6.6185 C   0  0  0  0  0  0  0  0  0  0  0  0
    5.9943   -6.3275   -7.1603 O   0  0  0  0  0  0  0  0  0  0  0  0
    4.5137   -8.2129   -7.3823 C   0  0  0  0  0  0  0  0  0  0  0  0
    4.8282   -8.4906   -8.5284 O   0  0  0  0  0  0  0  0  0  0  0  0
    3.3507   -8.8028   -6.6094 C   0  0  1  0  0  0  0  0  0  0  0  0
    3.6772   -9.0984   -5.2335 O   0  0  0  0  0  0  0  0  0  0  0  0
    4.3860   -8.1503   -4.5520 C   0  0  0  0  0  0  0  0  0  0  0  0
    4.2531   -8.0900   -3.1647 C   0  0  0  0  0  0  0  0  0  0  0  0
    3.4988   -9.0159   -2.5499 F   0  0  0  0  0  0  0  0  0  0  0  0
    2.1027   -7.9614   -6.7601 C   0  0  1  0  0  0  0  0  0  0  0  0
    1.6304   -7.7653   -8.1041 O   0  0  0  0  0  0  0  0  0  0  0  0
    1.0801   -8.1683   -5.7746 O   0  0  0  0  0  0  0  0  0  0  0  0
    1.6661   -6.9637   -5.7940 C   0  0  0  0  0  0  0  0  0  0  0  0
    2.2652   -6.3298   -4.9481 O   0  0  0  0  0  0  0  0  0  0  0  0
    4.5285   -0.7878    0.3476 C   0  0  0  0  0  0  0  0  0  0  0  0
    4.3496   -1.7186    1.1159 O   0  0  0  0  0  0  0  0  0  0  0  0
    3.9095    0.5713    0.5400 C   0  0  0  0  0  0  0  0  0  0  0  0
    4.0796    1.1736    1.5826 O   0  0  0  0  0  0  0  0  0  0  0  0
    3.2401    1.2037   -0.6626 C   0  0  0  0  0  0  0  0  0  0  0  0
    2.4288    2.0999   -0.5544 O   0  0  0  0  0  0  0  0  0  0  0  0
  1  2  2  0  0  0  0
  2  3  2  0  0  0  0
  3  4  1  0  0  0  0
  3 53  1  0  0  0  0
  4  5  1  0  0  0  0
  5  6  1  6  0  0  0
  5 49  1  0  0  0  0
  6  7  1  0  0  0  0
  7  8  2  0  0  0  0
  7 12  1  0  0  0  0
  8  9  1  0  0  0  0
  8 26  1  0  0  0  0
  9 10  1  0  0  0  0
 10 11  2  0  0  0  0
 10 21  1  0  0  0  0
 11 12  1  0  0  0  0
 11 13  1  0  0  0  0
 13 14  1  0  0  0  0
 13 19  1  0  0  0  0
 14 15  1  0  0  0  0
 15 16  2  0  0  0  0
 15 17  1  0  0  0  0
 17 18  1  0  0  0  0
 18 19  1  0  0  0  0
 18 25  1  0  0  0  0
 19 20  2  0  0  0  0
 20 21  1  0  0  0  0
 20 22  1  0  0  0  0
 22 23  1  0  0  0  0
 22 24  1  0  0  0  0
 23 24  1  0  0  0  0
 26 27  2  0  0  0  0
 26 32  1  0  0  0  0
 27 28  1  0  0  0  0
 28 29  1  0  0  0  0
 28 30  2  0  0  0  0
 30 31  1  0  0  0  0
 31 32  2  0  0  0  0
 31 42  1  0  0  0  0
 32 33  1  0  0  0  0
 33 34  2  0  0  0  0
 34 35  1  0  0  0  0
 34 41  1  0  0  0  0
 35 36  2  0  0  0  0
 35 37  1  0  0  0  0
 37 38  2  0  0  0  0
 39 37  1  1  0  0  0
 39 40  1  0  0  0  0
 39 44  1  0  0  0  0
 40 41  1  0  0  0  0
 41 42  2  0  0  0  0
 42 43  1  0  0  0  0
 44 45  1  6  0  0  0
 44 46  1  0  0  0  0
 44 47  1  0  0  0  0
 46 47  1  0  0  0  0
 47 48  2  0  0  0  0
 49 50  2  0  0  0  0
 49 51  1  0  0  0  0
 51 52  2  0  0  0  0
 51 53  1  0  0  0  0
 53 54  2  0  0  0  0
M  CHG  2  21   1  28   1
M  END
$$$$