
 OpenBabel09212021443D

 50 58  0  0  1  0  0  0  0  0999 V2000
    1.8970    0.4548    1.0336 O   0  0  0  0  0  0  0  0  0  0  0  0
    2.7844    0.1963    0.2267 C   0  0  0  0  0  0  0  0  0  0  0  0
    3.1214   -1.0790   -0.0777 N   0  0  0  0  0  0  0  0  0  0  0  0
    4.0085   -1.4581   -1.1531 C   0  0  0  0  0  0  0  0  0  0  0  0
    4.8221   -0.3226   -1.6667 C   0  0  0  0  0  0  0  0  0  0  0  0
    4.5351    0.9823   -1.2888 C   0  0  0  0  0  0  0  0  0  0  0  0
    3.4879    1.1890   -0.3812 N   0  0  0  0  0  0  0  0  0  0  0  0
    5.2733    2.0523   -1.8120 C   0  0  0  0  0  0  0  0  0  0  0  0
    5.0084    3.4749   -1.4288 C   0  0  0  0  0  0  0  0  0  0  0  0
    5.9197    4.4716   -2.0872 C   0  0  0  0  0  0  0  0  0  0  0  0
    6.8688    4.0434   -2.9460 C   0  0  0  0  0  0  0  0  0  0  0  0
    7.0852    2.7176   -3.2766 O   0  0  0  0  0  0  0  0  0  0  0  0
    6.2900    1.7475   -2.7101 C   0  0  0  0  0  0  0  0  0  0  0  0
    6.5865    0.4899   -3.1051 N   0  0  0  0  0  0  0  0  0  0  0  0
    5.8427   -0.4917   -2.5770 C   0  0  0  0  0  0  0  0  0  0  0  0
    6.1687   -1.7233   -3.0419 O   0  0  0  0  0  0  0  0  0  0  0  0
    7.7763    4.9816   -3.6360 C   0  0  0  0  0  0  0  0  0  0  0  0
    7.3064    5.4333   -4.8278 N   0  0  0  0  0  0  0  0  0  0  0  0
    8.0259    6.3841   -5.4542 C   0  0  0  0  0  0  0  0  0  0  0  0
    9.1826    6.9409   -4.9377 C   0  0  0  0  0  0  0  0  0  0  0  0
    9.6725    6.4710   -3.7154 C   0  0  0  0  0  0  0  0  0  0  0  0
    8.9882    5.4265   -3.0540 C   0  0  0  0  0  0  0  0  0  0  0  0
    9.5627    4.9011   -1.8731 C   0  0  0  0  0  0  0  0  0  0  0  0
   10.7398    5.4442   -1.3422 C   0  0  0  0  0  0  0  0  0  0  0  0
   11.3415    6.5442   -1.9341 C   0  0  0  0  0  0  0  0  0  0  0  0
   10.8278    7.0319   -3.1364 C   0  0  0  0  0  0  0  0  0  0  0  0
   12.4447    7.1805   -1.4456 O   0  0  0  0  0  0  0  0  0  0  0  0
   12.7728    6.9467   -0.0715 C   0  0  2  0  0  0  0  0  0  0  0  0
   12.5534    5.5422    0.4321 C   0  0  0  0  0  0  0  0  0  0  0  0
   13.1734    5.0597    1.3705 O   0  0  0  0  0  0  0  0  0  0  0  0
   11.3692    4.8270   -0.1714 C   0  0  0  0  0  0  0  0  0  0  0  0
   10.9546    3.7878    0.3166 O   0  0  0  0  0  0  0  0  0  0  0  0
   12.1352    7.9718    0.8230 C   0  0  1  0  0  0  0  0  0  0  0  0
   12.4970    9.3509    0.5678 O   0  0  0  0  0  0  0  0  0  0  0  0
   10.7653    7.7299    1.1414 O   0  0  0  0  0  0  0  0  0  0  0  0
   11.6330    7.7069    2.1779 C   0  0  0  0  0  0  0  0  0  0  0  0
   11.6586    8.4015    3.1677 O   0  0  0  0  0  0  0  0  0  0  0  0
    5.7812    5.8286   -1.8224 O   0  0  0  0  0  0  0  0  0  0  0  0
    4.8006    6.2840   -0.8923 C   0  0  1  0  0  0  0  0  0  0  0  0
    5.0500    5.7627    0.4091 O   0  0  0  0  0  0  0  0  0  0  0  0
    4.0414    6.0637    1.3781 C   0  0  1  0  0  0  0  0  0  0  0  0
    4.4543    5.5476    2.7229 C   0  0  0  0  0  0  0  0  0  0  0  0
    5.7145    6.0209    3.1999 O   0  0  0  0  0  0  0  0  0  0  0  0
    5.5706    4.6548    2.7436 O   0  0  0  0  0  0  0  0  0  0  0  0
    3.7458    7.5476    1.4364 C   0  0  0  0  0  0  0  0  0  0  0  0
    2.8193    8.0560    2.0470 O   0  0  0  0  0  0  0  0  0  0  0  0
    4.6268    8.3598    0.5229 C   0  0  0  0  0  0  0  0  0  0  0  0
    5.1198    9.4093    0.8958 O   0  0  0  0  0  0  0  0  0  0  0  0
    4.8713    7.8079   -0.8592 C   0  0  0  0  0  0  0  0  0  0  0  0
    4.9953    8.5523   -1.8193 O   0  0  0  0  0  0  0  0  0  0  0  0
  1  2  2  0  0  0  0
  2  3  1  0  0  0  0
  2  7  1  0  0  0  0
  3  4  1  0  0  0  0
  4  5  1  0  0  0  0
  5  6  2  0  0  0  0
  5 15  1  0  0  0  0
  6  7  1  0  0  0  0
  6  8  1  0  0  0  0
  8  9  1  0  0  0  0
  8 13  2  0  0  0  0
  9 10  1  0  0  0  0
 10 11  2  0  0  0  0
 10 38  1  0  0  0  0
 11 12  1  0  0  0  0
 11 17  1  0  0  0  0
 12 13  1  0  0  0  0
 13 14  1  0  0  0  0
 14 15  2  0  0  0  0
 15 16  1  0  0  0  0
 17 18  2  0  0  0  0
 17 22  1  0  0  0  0
 18 19  1  0  0  0  0
 19 20  2  0  0  0  0
 20 21  1  0  0  0  0
 21 22  2  0  0  0  0
 21 26  1  0  0  0  0
 22 23  1  0  0  0  0
 23 24  2  0  0  0  0
 24 25  1  0  0  0  0
 24 31  1  0  0  0  0
 25 26  2  0  0  0  0
 25 27  1  0  0  0  0
 28 27  1  6  0  0  0
 28 29  1  0  0  0  0
 28 33  1  0  0  0  0
 29 30  2  0  0  0  0
 29 31  1  0  0  0  0
 31 32  2  0  0  0  0
 33 34  1  6  0  0  0
 33 35  1  0  0  0  0
 33 36  1  0  0  0  0
 35 36  1  0  0  0  0
 36 37  2  0  0  0  0
 39 38  1  6  0  0  0
 39 40  1  0  0  0  0
 39 49  1  0  0  0  0
 40 41  1  0  0  0  0
 41 45  1  0  0  0  0
 41 42  1  1  0  0  0
 42 43  1  0  0  0  0
 42 44  1  0  0  0  0
 43 44  1  0  0  0  0
 45 46  2  0  0  0  0
 45 47  1  0  0  0  0
 47 48  2  0  0  0  0
 47 49  1  0  0  0  0
 49 50  2  0  0  0  0
M  END
$$$$