
 OpenBabel09212011283D

 49 56  0  0  1  0  0  0  0  0999 V2000
    9.9291   -0.5319    1.9445 O   0  0  0  0  0  0  0  0  0  0  0  0
    9.2796    0.0046    3.0964 C   0  0  0  0  0  0  0  0  0  0  0  0
    7.7890    0.1737    2.8053 C   0  0  2  0  0  0  0  0  0  0  0  0
    7.2310   -1.1049    2.5105 O   0  0  0  0  0  0  0  0  0  0  0  0
    5.8986   -1.0418    2.0161 C   0  0  2  0  0  0  0  0  0  0  0  0
    5.3069   -2.3407    1.9754 O   0  0  0  0  0  0  0  0  0  0  0  0
    5.2235   -3.0332    3.1770 C   0  0  0  0  0  0  0  0  0  0  0  0
    5.2555   -4.3794    3.2059 C   0  0  0  0  0  0  0  0  0  0  0  0
    5.1606   -5.1337    4.3637 O   0  0  0  0  0  0  0  0  0  0  0  0
    4.9409   -4.5007    5.5637 C   0  0  0  0  0  0  0  0  0  0  0  0
    4.8276   -3.1227    5.6655 C   0  0  0  0  0  0  0  0  0  0  0  0
    4.9968   -2.2653    4.4500 C   0  0  0  0  0  0  0  0  0  0  0  0
    4.5976   -2.5956    6.9423 C   0  0  0  0  0  0  0  0  0  0  0  0
    4.4514   -1.2151    7.1346 N   0  0  0  0  0  0  0  0  0  0  0  0
    4.3322   -0.6087    8.3445 C   0  0  0  0  0  0  0  0  0  0  0  0
    4.2417    0.6104    8.4396 O   0  0  0  0  0  0  0  0  0  0  0  0
    4.3516   -1.4049    9.4383 N   0  0  0  0  0  0  0  0  0  0  0  0
    4.2428   -2.8395    9.3989 C   0  0  0  0  0  0  0  0  0  0  0  0
    4.5118   -3.4320    8.0565 C   0  0  0  0  0  0  0  0  0  0  0  0
    4.6384   -4.7938    7.8296 C   0  0  0  0  0  0  0  0  0  0  0  0
    4.8521   -5.3335    6.6199 N   0  0  0  0  0  0  0  0  0  0  0  0
    4.5546   -5.7258    8.8197 O   0  0  0  0  0  0  0  0  0  0  0  0
    5.3284   -5.2092    1.9905 C   0  0  0  0  0  0  0  0  0  0  0  0
    4.1080   -5.5246    1.4813 N   0  0  0  0  0  0  0  0  0  0  0  0
    4.0716   -6.3356    0.4090 C   0  0  0  0  0  0  0  0  0  0  0  0
    5.1983   -6.8695   -0.1863 C   0  0  0  0  0  0  0  0  0  0  0  0
    6.4544   -6.5489    0.3356 C   0  0  0  0  0  0  0  0  0  0  0  0
    6.5473   -5.6874    1.4531 C   0  0  0  0  0  0  0  0  0  0  0  0
    7.8374   -5.3837    1.9522 C   0  0  0  0  0  0  0  0  0  0  0  0
    8.9862   -5.9193    1.3528 C   0  0  0  0  0  0  0  0  0  0  0  0
    8.8817   -6.7664    0.2598 C   0  0  0  0  0  0  0  0  0  0  0  0
    7.6196   -7.0863   -0.2391 C   0  0  0  0  0  0  0  0  0  0  0  0
    9.9355   -7.3690   -0.3585 O   0  0  0  0  0  0  0  0  0  0  0  0
   11.2095   -6.7421   -0.2156 C   0  0  2  0  0  0  0  0  0  0  0  0
   11.5128   -6.0988    1.1162 C   0  0  0  0  0  0  0  0  0  0  0  0
   12.6510   -5.8542    1.4968 O   0  0  0  0  0  0  0  0  0  0  0  0
   10.3135   -5.6000    1.8875 C   0  0  0  0  0  0  0  0  0  0  0  0
   10.4629   -4.9227    2.8932 O   0  0  0  0  0  0  0  0  0  0  0  0
   11.4606   -5.8155   -1.3691 C   0  0  1  0  0  0  0  0  0  0  0  0
   11.4128   -6.4200   -2.6857 O   0  0  0  0  0  0  0  0  0  0  0  0
   10.8444   -4.5327   -1.2480 O   0  0  0  0  0  0  0  0  0  0  0  0
   12.1975   -4.5469   -1.2972 C   0  0  0  0  0  0  0  0  0  0  0  0
   12.9347   -4.0297   -2.0995 O   0  0  0  0  0  0  0  0  0  0  0  0
    5.8973   -0.4244    0.6225 C   0  0  0  0  0  0  0  0  0  0  0  0
    5.1239   -0.6975   -0.2839 O   0  0  0  0  0  0  0  0  0  0  0  0
    6.8887    0.7098    0.4841 C   0  0  0  0  0  0  0  0  0  0  0  0
    7.0432    1.2726   -0.5890 O   0  0  0  0  0  0  0  0  0  0  0  0
    7.6214    1.2072    1.7096 C   0  0  0  0  0  0  0  0  0  0  0  0
    7.9369    2.3831    1.8265 O   0  0  0  0  0  0  0  0  0  0  0  0
  1  2  1  0  0  0  0
  3  4  1  0  0  0  0
  3 48  1  0  0  0  0
  3  2  1  6  0  0  0
  4  5  1  0  0  0  0
  5  6  1  6  0  0  0
  5 44  1  0  0  0  0
  6  7  1  0  0  0  0
  7  8  2  0  0  0  0
  7 12  1  0  0  0  0
  8  9  1  0  0  0  0
  8 23  1  0  0  0  0
  9 10  1  0  0  0  0
 10 11  2  0  0  0  0
 10 21  1  0  0  0  0
 11 12  1  0  0  0  0
 11 13  1  0  0  0  0
 13 14  1  0  0  0  0
 13 19  2  0  0  0  0
 14 15  1  0  0  0  0
 15 16  2  0  0  0  0
 15 17  1  0  0  0  0
 17 18  1  0  0  0  0
 18 19  1  0  0  0  0
 19 20  1  0  0  0  0
 20 21  2  0  0  0  0
 20 22  1  0  0  0  0
 23 24  2  0  0  0  0
 23 28  1  0  0  0  0
 24 25  1  0  0  0  0
 25 26  2  0  0  0  0
 26 27  1  0  0  0  0
 27 28  2  0  0  0  0
 27 32  1  0  0  0  0
 28 29  1  0  0  0  0
 29 30  2  0  0  0  0
 30 31  1  0  0  0  0
 30 37  1  0  0  0  0
 31 32  2  0  0  0  0
 31 33  1  0  0  0  0
 34 33  1  1  0  0  0
 34 35  1  0  0  0  0
 34 39  1  0  0  0  0
 35 36  2  0  0  0  0
 35 37  1  0  0  0  0
 37 38  2  0  0  0  0
 39 40  1  6  0  0  0
 39 41  1  0  0  0  0
 39 42  1  0  0  0  0
 41 42  1  0  0  0  0
 42 43  2  0  0  0  0
 44 45  2  0  0  0  0
 44 46  1  0  0  0  0
 46 47  2  0  0  0  0
 46 48  1  0  0  0  0
 48 49  2  0  0  0  0
M  END
$$$$