
 OpenBabel11222001123D

 54 63  0  0  1  0  0  0  0  0999 V2000
    0.9021    5.9676   -5.7230 O   0  0  0  0  0  0  0  0  0  0  0  0
    0.8694    4.5966   -5.7729 C   0  0  0  0  0  0  0  0  0  0  0  0
    1.6472    3.8196   -5.0093 C   0  0  0  0  0  0  0  0  0  0  0  0
    2.5877    4.3690   -4.1467 O   0  0  0  0  0  0  0  0  0  0  0  0
    2.6980    3.6635   -2.9120 C   0  0  2  0  0  0  0  0  0  0  0  0
    3.6468    4.2664   -1.9879 O   0  0  0  0  0  0  0  0  0  0  0  0
    3.7424    5.6424   -1.8729 C   0  0  0  0  0  0  0  0  0  0  0  0
    4.9202    6.2432   -1.5645 C   0  0  0  0  0  0  0  0  0  0  0  0
    5.0169    7.6358   -1.4873 O   0  0  0  0  0  0  0  0  0  0  0  0
    3.8901    8.4461   -1.5506 C   0  0  0  0  0  0  0  0  0  0  0  0
    2.6686    7.9251   -1.7622 C   0  0  0  0  0  0  0  0  0  0  0  0
    2.4605    6.4487   -1.9626 C   0  0  0  0  0  0  0  0  0  0  0  0
    1.4524    8.8040   -1.8938 C   0  0  3  0  0  0  0  0  0  0  0  0
    0.5365    8.4963   -0.8605 O   0  0  0  0  0  0  0  0  0  0  0  0
   -0.6457    9.1836   -0.9126 C   0  0  0  0  0  0  0  0  0  0  0  0
   -1.6303    8.8196   -0.3066 O   0  0  0  0  0  0  0  0  0  0  0  0
   -0.6344   10.2670   -1.7364 O   0  0  0  0  0  0  0  0  0  0  0  0
    0.5395   11.0610   -1.8043 C   0  0  3  0  0  0  0  0  0  0  0  0
    1.7783   10.2403   -1.7163 C   0  0  0  0  0  0  0  0  0  0  0  0
    3.0302   10.6947   -1.4925 C   0  0  0  0  0  0  0  0  0  0  0  0
    4.0841    9.8015   -1.3970 O   0  3  0  0  0  0  0  0  0  0  0  0
    3.3959   12.1293   -1.3848 C   0  0  0  0  0  0  0  0  0  0  0  0
    4.7622   12.5141   -1.1448 O   0  0  0  0  0  0  0  0  0  0  0  0
    4.1540   12.7638   -2.4251 O   0  0  0  0  0  0  0  0  0  0  0  0
    0.6049   11.6797   -3.0727 O   0  0  0  0  0  0  0  0  0  0  0  0
    6.2128    5.5278   -1.2375 C   0  0  0  0  0  0  0  0  0  0  0  0
    6.4963    4.2959   -1.8295 C   0  0  0  0  0  0  0  0  0  0  0  0
    7.5954    3.6022   -1.5182 N   0  3  0  0  0  0  0  0  0  0  0  0
    7.7946    2.4005   -2.0943 F   0  0  0  0  0  0  0  0  0  0  0  0
    8.4885    4.0374   -0.6543 N   0  0  0  0  0  0  0  0  0  0  0  0
    8.3010    5.2024   -0.0341 C   0  0  0  0  0  0  0  0  0  0  0  0
    7.1773    6.0136   -0.2975 C   0  0  0  0  0  0  0  0  0  0  0  0
    7.0947    7.2298    0.4317 C   0  0  0  0  0  0  0  0  0  0  0  0
    8.0395    7.6018    1.3992 C   0  0  0  0  0  0  0  0  0  0  0  0
    7.8826    8.8811    2.0965 C   0  0  0  0  0  0  0  0  0  0  0  0
    6.8887    9.5686    1.9154 O   0  0  0  0  0  0  0  0  0  0  0  0
    9.0151    9.2831    2.9941 C   0  0  0  0  0  0  0  0  0  0  0  0
    9.2486   10.5558    3.1962 N   0  0  0  0  0  0  0  0  0  0  0  0
   10.3916   10.8646    4.0259 O   0  0  0  0  0  0  0  0  0  0  0  0
   10.5483    9.8013    4.9759 C   0  0  3  0  0  0  0  0  0  0  0  0
   11.0786    8.6388    4.0334 C   0  0  2  0  0  0  0  0  0  0  0  0
    9.7848    8.0807    3.5736 C   0  0  2  0  0  0  0  0  0  0  0  0
   10.0353    7.0182    2.6469 O   0  0  0  0  0  0  0  0  0  0  0  0
    9.1016    6.7756    1.6866 C   0  0  0  0  0  0  0  0  0  0  0  0
    9.2292    5.6029    0.9372 C   0  0  0  0  0  0  0  0  0  0  0  0
   10.2724    4.7950    1.1867 F   0  0  0  0  0  0  0  0  0  0  0  0
   11.9852    8.9642    2.9531 O   0  0  0  0  0  0  0  0  0  0  0  0
   11.6239    8.9538    5.2787 O   0  0  0  0  0  0  0  0  0  0  0  0
    3.2619    2.2849   -3.2240 C   0  0  0  0  0  0  0  0  0  0  0  0
    4.2888    1.8257   -2.7348 O   0  0  0  0  0  0  0  0  0  0  0  0
    2.4942    1.5594   -4.3070 C   0  0  0  0  0  0  0  0  0  0  0  0
    2.7144    0.3804   -4.5222 O   0  0  0  0  0  0  0  0  0  0  0  0
    1.4957    2.3399   -5.1390 C   0  0  0  0  0  0  0  0  0  0  0  0
    0.6414    1.7928   -5.8112 O   0  0  0  0  0  0  0  0  0  0  0  0
  1  2  1  0  0  0  0
  2  3  2  0  0  0  0
  3  4  1  0  0  0  0
  3 53  1  0  0  0  0
  4  5  1  0  0  0  0
  5  6  1  1  0  0  0
  5 49  1  0  0  0  0
  6  7  1  0  0  0  0
  7  8  2  0  0  0  0
  7 12  1  0  0  0  0
  8  9  1  0  0  0  0
  8 26  1  0  0  0  0
  9 10  1  0  0  0  0
 10 11  2  0  0  0  0
 10 21  1  0  0  0  0
 11 12  1  0  0  0  0
 11 13  1  0  0  0  0
 13 14  1  0  0  0  0
 13 19  1  0  0  0  0
 14 15  1  0  0  0  0
 15 16  2  0  0  0  0
 15 17  1  0  0  0  0
 17 18  1  0  0  0  0
 18 19  1  0  0  0  0
 18 25  1  0  0  0  0
 19 20  2  0  0  0  0
 20 21  1  0  0  0  0
 20 22  1  0  0  0  0
 22 23  1  0  0  0  0
 22 24  1  0  0  0  0
 23 24  1  0  0  0  0
 26 27  2  0  0  0  0
 26 32  1  0  0  0  0
 27 28  1  0  0  0  0
 28 30  2  0  0  0  0
 28 29  1  0  0  0  0
 30 31  1  0  0  0  0
 31 32  2  0  0  0  0
 31 45  1  0  0  0  0
 32 33  1  0  0  0  0
 33 34  2  0  0  0  0
 34 35  1  0  0  0  0
 34 44  1  0  0  0  0
 35 37  1  0  0  0  0
 35 36  2  0  0  0  0
 37 38  2  0  0  0  0
 38 39  1  0  0  0  0
 39 40  1  0  0  0  0
 40 41  1  0  0  0  0
 40 48  1  0  0  0  0
 41 42  1  0  0  0  0
 41 48  1  0  0  0  0
 41 47  1  1  0  0  0
 42 37  1  6  0  0  0
 42 43  1  0  0  0  0
 43 44  1  0  0  0  0
 44 45  2  0  0  0  0
 45 46  1  0  0  0  0
 49 50  2  0  0  0  0
 49 51  1  0  0  0  0
 51 52  2  0  0  0  0
 51 53  1  0  0  0  0
 53 54  2  0  0  0  0
M  CHG  2  21   1  28   1
M  END
$$$$