
 OpenBabel10222012573D

 65 75  0  0  1  0  0  0  0  0999 V2000
    5.0605   -4.5308   -0.4781 C   0  0  0  0  0  0  0  0  0  0  0  0
    4.7391   -3.1524   -0.9960 N   0  3  0  0  0  0  0  0  0  0  0  0
    3.9362   -2.9915   -2.0578 C   0  0  0  0  0  0  0  0  0  0  0  0
    3.6828   -1.7523   -2.5410 N   0  3  0  0  0  0  0  0  0  0  0  0
    2.5744   -1.7419   -3.8527 Cl  0  0  0  0  0  0  0  0  0  0  0  0
    4.2494   -0.6217   -1.9833 C   0  0  0  0  0  0  0  0  0  0  0  0
    5.0652   -0.7929   -0.8366 N   0  3  0  0  0  0  0  0  0  0  0  0
    5.2790   -2.0694   -0.3842 N   0  0  0  0  0  0  0  0  0  0  0  0
    5.6952    0.2992   -0.1491 C   0  0  0  0  0  0  0  0  0  0  0  0
    6.5262    0.2288    0.9938 C   0  0  0  0  0  0  0  0  0  0  0  0
    7.1316    1.3139    1.6296 N   0  3  0  0  0  0  0  0  0  0  0  0
    7.9340    0.8592    3.0886 Cl  0  0  0  0  0  0  0  0  0  0  0  0
    6.9327    2.6789    1.1802 N   0  3  0  0  0  0  0  0  0  0  0  0
    6.1120    2.7704    0.0463 C   0  0  0  0  0  0  0  0  0  0  0  0
    5.4999    1.5853   -0.6191 C   0  0  0  0  0  0  0  0  0  0  0  0
    4.7367    1.6997   -1.7130 N   0  0  0  0  0  0  0  0  0  0  0  0
    4.1443    0.6881   -2.3969 N   0  3  0  0  0  0  0  0  0  0  0  0
    3.3725    1.2082   -3.8353 Cl  0  0  0  0  0  0  0  0  0  0  0  0
    5.8707    4.0191   -0.5644 N   0  0  0  0  0  0  0  0  0  0  0  0
    7.6285    4.0206    1.8647 C   0  0  0  0  0  0  0  0  0  0  0  0
    8.9148    3.8410    2.4136 C   0  0  0  0  0  0  0  0  0  0  0  0
    9.7219    2.7021    2.2042 N   0  0  0  0  0  0  0  0  0  0  0  0
    9.4881    4.9379    3.0460 C   0  0  0  0  0  0  0  0  0  0  0  0
    8.9280    6.1407    3.1403 N   0  0  0  0  0  0  0  0  0  0  0  0
    7.7655    6.4411    2.5767 N   0  3  0  0  0  0  0  0  0  0  0  0
    6.9915    5.4494    1.9203 C   0  0  0  0  0  0  0  0  0  0  0  0
    5.7118    6.0138    1.4822 C   0  0  0  0  0  0  0  0  0  0  0  0
    5.3571    7.3921    1.4874 C   0  0  0  0  0  0  0  0  0  0  0  0
    3.9856    7.8149    0.9764 C   0  0  0  0  0  0  0  0  0  0  0  0
    3.4119    7.2132   -0.1484 C   0  0  0  0  0  0  0  0  0  0  0  0
    2.0956    7.5081   -0.5991 C   0  0  0  0  0  0  0  0  0  0  0  0
    1.5247    6.4614   -1.8541 Cl  0  0  0  0  0  0  0  0  0  0  0  0
    1.3211    8.5583   -0.0252 C   0  0  0  0  0  0  0  0  0  0  0  0
    1.8994    9.2160    1.0609 C   0  0  0  0  0  0  0  0  0  0  0  0
    3.1471    8.7633    1.6212 C   0  0  0  0  0  0  0  0  0  0  0  0
    3.5354    9.2060    3.2666 Cl  0  0  0  0  0  0  0  0  0  0  0  0
    1.2146   10.3373    1.5949 C   0  0  0  0  0  0  0  0  0  0  0  0
   -0.0312   10.7715    1.0984 C   0  0  0  0  0  0  0  0  0  0  0  0
   -0.6693   10.0716    0.0988 C   0  0  0  0  0  0  0  0  0  0  0  0
    0.0058    8.9700   -0.4714 C   0  0  0  0  0  0  0  0  0  0  0  0
   -0.5948    8.2837   -1.4435 F   0  0  0  0  0  0  0  0  0  0  0  0
   -1.9056   10.4191   -0.3963 O   0  0  0  0  0  0  0  0  0  0  0  0
   -2.6657   11.4211    0.3366 C   0  0  3  0  0  0  0  0  0  0  0  0
   -1.7536   12.5518    0.8254 C   0  0  3  0  0  0  0  0  0  0  0  0
   -0.6469   11.9923    1.7090 C   0  0  3  0  0  0  0  0  0  0  0  0
   -1.1337   11.6206    2.9956 O   0  0  0  0  0  0  0  0  0  0  0  0
   -2.4591   13.5162    1.6072 O   0  0  0  0  0  0  0  0  0  0  0  0
   -3.9476   11.9532   -0.4372 C   0  0  3  0  0  0  0  0  0  0  0  0
   -4.9307   10.7923   -0.7361 C   0  0  0  0  0  0  0  0  0  0  0  0
   -4.5781    9.9306   -1.9630 C   0  0  0  0  0  0  0  0  0  0  0  0
   -3.5025   10.4775   -2.8755 C   0  0  0  0  0  0  0  0  0  0  0  0
   -3.0549   11.8084   -2.7568 C   0  0  0  0  0  0  0  0  0  0  0  0
   -3.7806   12.7074   -1.7875 C   0  0  3  0  0  0  0  0  0  0  0  0
   -3.3646   14.1939   -1.7618 C   0  0  3  0  0  0  0  0  0  0  0  0
   -2.5507   14.4648   -0.7116 F   0  0  0  0  0  0  0  0  0  0  0  0
   -2.6489   14.6418   -3.0306 C   0  0  0  0  0  0  0  0  0  0  0  0
   -1.5049   13.6928   -3.3777 C   0  0  0  0  0  0  0  0  0  0  0  0
   -2.0010   12.2816   -3.5485 C   0  0  0  0  0  0  0  0  0  0  0  0
   -1.4028   11.4173   -4.4713 C   0  0  0  0  0  0  0  0  0  0  0  0
   -1.8750   10.1130   -4.6281 C   0  0  0  0  0  0  0  0  0  0  0  0
   -2.9209    9.6446   -3.8352 C   0  0  0  0  0  0  0  0  0  0  0  0
    6.3298    8.2846    1.9939 C   0  0  0  0  0  0  0  0  0  0  0  0
    7.3950    7.7741    2.6640 N   0  3  0  0  0  0  0  0  0  0  0  0
    8.3097    8.8116    3.7084 Cl  0  0  0  0  0  0  0  0  0  0  0  0
    6.2864    9.7828    1.7875 C   0  0  0  0  0  0  0  0  0  0  0  0
  1  2  1  0  0  0  0
  2  3  2  0  0  0  0
  2  8  1  0  0  0  0
  3  4  1  0  0  0  0
  4  5  1  0  0  0  0
  4  6  2  0  0  0  0
  6  7  1  0  0  0  0
  6 17  1  0  0  0  0
  7  8  2  0  0  0  0
  7  9  1  0  0  0  0
  9 10  2  0  0  0  0
  9 15  1  0  0  0  0
 10 11  1  0  0  0  0
 11 12  1  0  0  0  0
 11 13  2  0  0  0  0
 13 14  1  0  0  0  0
 13 20  1  0  0  0  0
 14 15  2  0  0  0  0
 14 19  1  0  0  0  0
 15 16  1  0  0  0  0
 16 17  2  0  0  0  0
 17 18  1  0  0  0  0
 20 21  2  0  0  0  0
 20 26  1  0  0  0  0
 21 22  1  0  0  0  0
 21 23  1  0  0  0  0
 23 24  2  0  0  0  0
 24 25  1  0  0  0  0
 25 26  2  0  0  0  0
 25 63  1  0  0  0  0
 26 27  1  0  0  0  0
 27 28  2  0  0  0  0
 28 29  1  0  0  0  0
 28 62  1  0  0  0  0
 29 30  2  0  0  0  0
 29 35  1  0  0  0  0
 30 31  1  0  0  0  0
 31 32  1  0  0  0  0
 31 33  2  0  0  0  0
 33 34  1  0  0  0  0
 33 40  1  0  0  0  0
 34 35  2  0  0  0  0
 34 37  1  0  0  0  0
 35 36  1  0  0  0  0
 37 38  2  0  0  0  0
 38 39  1  0  0  0  0
 38 45  1  0  0  0  0
 39 40  2  0  0  0  0
 39 42  1  0  0  0  0
 40 41  1  0  0  0  0
 42 43  1  0  0  0  0
 43 44  1  0  0  0  0
 43 48  1  0  0  0  0
 44 45  1  0  0  0  0
 44 47  1  0  0  0  0
 45 46  1  0  0  0  0
 48 49  1  0  0  0  0
 48 53  1  0  0  0  0
 49 50  1  0  0  0  0
 50 51  1  0  0  0  0
 51 52  2  0  0  0  0
 51 61  1  0  0  0  0
 52 53  1  0  0  0  0
 52 58  1  0  0  0  0
 53 54  1  0  0  0  0
 54 55  1  0  0  0  0
 54 56  1  0  0  0  0
 56 57  1  0  0  0  0
 57 58  1  0  0  0  0
 58 59  2  0  0  0  0
 59 60  1  0  0  0  0
 60 61  2  0  0  0  0
 62 63  2  0  0  0  0
 62 65  1  0  0  0  0
 63 64  1  0  0  0  0
M  CHG  8   2   1   4   1   7   1  11   1  13   1  17   1  25   1  63   1
M  END
$$$$