
 OpenBabel09222019563D

 51 59  0  0  1  0  0  0  0  0999 V2000
    1.6329   -0.5177   -0.2484 O   0  0  0  0  0  0  0  0  0  0  0  0
    2.9958   -0.4778   -0.4013 C   0  0  0  0  0  0  0  0  0  0  0  0
    3.6150    0.5425   -1.0077 C   0  0  0  0  0  0  0  0  0  0  0  0
    2.9601    1.6382   -1.5522 N   0  0  0  0  0  0  0  0  0  0  0  0
    3.5878    2.9287   -1.7864 C   0  0  2  0  0  0  0  0  0  0  0  0
    2.6826    3.7642   -2.5052 O   0  0  0  0  0  0  0  0  0  0  0  0
    2.8259    5.1422   -2.3401 C   0  0  0  0  0  0  0  0  0  0  0  0
    1.7741    5.9855   -2.4378 C   0  0  0  0  0  0  0  0  0  0  0  0
    1.8879    7.3669   -2.2627 O   0  0  0  0  0  0  0  0  0  0  0  0
    3.1319    7.9361   -2.0673 C   0  0  0  0  0  0  0  0  0  0  0  0
    4.2862    7.1838   -2.0166 C   0  0  0  0  0  0  0  0  0  0  0  0
    4.2090    5.6998   -2.1153 C   0  0  0  0  0  0  0  0  0  0  0  0
    5.4996    7.8608   -1.8504 C   0  0  0  0  0  0  0  0  0  0  0  0
    6.7166    7.1602   -1.8139 N   0  0  0  0  0  0  0  0  0  0  0  0
    7.9176    7.7120   -1.4947 C   0  0  0  0  0  0  0  0  0  0  0  0
    8.9346    7.0339   -1.4031 O   0  0  0  0  0  0  0  0  0  0  0  0
    7.9297    9.0423   -1.2390 N   0  0  0  0  0  0  0  0  0  0  0  0
    6.8606    9.9338   -1.6159 C   0  0  0  0  0  0  0  0  0  0  0  0
    5.5280    9.2504   -1.7201 C   0  0  0  0  0  0  0  0  0  0  0  0
    4.3136    9.9489   -1.7873 C   0  0  0  0  0  0  0  0  0  0  0  0
    3.1344    9.2819   -1.9629 N   0  0  0  0  0  0  0  0  0  0  0  0
    4.2494   11.4587   -1.7233 C   0  0  0  0  0  0  0  0  0  0  0  0
    3.0869   12.0578   -1.1262 O   0  0  0  0  0  0  0  0  0  0  0  0
    4.3508   12.0812   -0.4341 O   0  0  0  0  0  0  0  0  0  0  0  0
    0.3692    5.5506   -2.6710 C   0  0  0  0  0  0  0  0  0  0  0  0
   -0.3090    5.2739   -1.5232 N   0  0  0  0  0  0  0  0  0  0  0  0
   -1.6220    4.9788   -1.6259 C   0  0  0  0  0  0  0  0  0  0  0  0
   -2.3226    4.9662   -2.8171 C   0  0  0  0  0  0  0  0  0  0  0  0
   -1.6430    5.2574   -3.9989 C   0  0  0  0  0  0  0  0  0  0  0  0
   -0.2499    5.5247   -3.9571 C   0  0  0  0  0  0  0  0  0  0  0  0
    0.3947    5.7368   -5.2020 C   0  0  0  0  0  0  0  0  0  0  0  0
   -0.3290    5.7440   -6.4116 C   0  0  0  0  0  0  0  0  0  0  0  0
   -1.7049    5.5706   -6.4195 C   0  0  0  0  0  0  0  0  0  0  0  0
   -2.3510    5.2932   -5.2175 C   0  0  0  0  0  0  0  0  0  0  0  0
   -2.4990    5.6235   -7.5288 O   0  0  0  0  0  0  0  0  0  0  0  0
   -1.9395    6.2182   -8.7057 C   0  0  2  0  0  0  0  0  0  0  0  0
   -0.4767    5.9455   -8.9426 C   0  0  0  0  0  0  0  0  0  0  0  0
    0.0306    5.8302  -10.0504 O   0  0  0  0  0  0  0  0  0  0  0  0
    0.3702    5.8967   -7.6922 C   0  0  0  0  0  0  0  0  0  0  0  0
    1.5876    5.9658   -7.7574 O   0  0  0  0  0  0  0  0  0  0  0  0
   -2.2407    7.6923   -8.7552 C   0  0  1  0  0  0  0  0  0  0  0  0
   -1.7523    8.5005   -7.6633 O   0  0  0  0  0  0  0  0  0  0  0  0
   -2.1277    8.3243  -10.0342 O   0  0  0  0  0  0  0  0  0  0  0  0
   -3.3625    8.1918   -9.5320 C   0  0  0  0  0  0  0  0  0  0  0  0
   -4.3507    7.6538  -10.0023 O   0  0  0  0  0  0  0  0  0  0  0  0
    4.9257    2.6589   -2.4815 C   0  0  0  0  0  0  0  0  0  0  0  0
    5.3514    3.1757   -3.5038 O   0  0  0  0  0  0  0  0  0  0  0  0
    5.7642    1.6747   -1.7166 C   0  0  0  0  0  0  0  0  0  0  0  0
    6.9485    1.9199   -1.5355 O   0  0  0  0  0  0  0  0  0  0  0  0
    5.1138    0.4566   -1.0920 C   0  0  0  0  0  0  0  0  0  0  0  0
    5.7784   -0.4815   -0.6822 O   0  0  0  0  0  0  0  0  0  0  0  0
  1  2  1  0  0  0  0
  2  3  2  0  0  0  0
  3  4  1  0  0  0  0
  3 50  1  0  0  0  0
  4  5  1  0  0  0  0
  5  6  1  6  0  0  0
  5 46  1  0  0  0  0
  6  7  1  0  0  0  0
  7  8  2  0  0  0  0
  7 12  1  0  0  0  0
  8  9  1  0  0  0  0
  8 25  1  0  0  0  0
  9 10  1  0  0  0  0
 10 11  2  0  0  0  0
 10 21  1  0  0  0  0
 11 12  1  0  0  0  0
 11 13  1  0  0  0  0
 13 14  1  0  0  0  0
 13 19  2  0  0  0  0
 14 15  1  0  0  0  0
 15 16  2  0  0  0  0
 15 17  1  0  0  0  0
 17 18  1  0  0  0  0
 18 19  1  0  0  0  0
 19 20  1  0  0  0  0
 20 21  2  0  0  0  0
 20 22  1  0  0  0  0
 22 23  1  0  0  0  0
 22 24  1  0  0  0  0
 23 24  1  0  0  0  0
 25 26  2  0  0  0  0
 25 30  1  0  0  0  0
 26 27  1  0  0  0  0
 27 28  2  0  0  0  0
 28 29  1  0  0  0  0
 29 30  2  0  0  0  0
 29 34  1  0  0  0  0
 30 31  1  0  0  0  0
 31 32  2  0  0  0  0
 32 33  1  0  0  0  0
 32 39  1  0  0  0  0
 33 34  2  0  0  0  0
 33 35  1  0  0  0  0
 36 35  1  1  0  0  0
 36 37  1  0  0  0  0
 36 41  1  0  0  0  0
 37 38  2  0  0  0  0
 37 39  1  0  0  0  0
 39 40  2  0  0  0  0
 41 42  1  1  0  0  0
 41 43  1  0  0  0  0
 41 44  1  0  0  0  0
 43 44  1  0  0  0  0
 44 45  2  0  0  0  0
 46 47  2  0  0  0  0
 46 48  1  0  0  0  0
 48 49  2  0  0  0  0
 48 50  1  0  0  0  0
 50 51  2  0  0  0  0
M  END
$$$$