
 OpenBabel11272013043D

 54 62  0  0  1  0  0  0  0  0999 V2000
    1.3342    6.0534    4.0948 F   0  0  0  0  0  0  0  0  0  0  0  0
    2.5827    5.9538    3.6005 C   0  0  0  0  0  0  0  0  0  0  0  0
    3.2286    4.7871    3.5922 C   0  0  0  0  0  0  0  0  0  0  0  0
    2.6453    3.6652    4.1358 O   0  0  0  0  0  0  0  0  0  0  0  0
    2.9034    2.4438    3.4578 C   0  0  2  0  0  0  0  0  0  0  0  0
    2.2399    1.3368    4.1121 O   0  0  0  0  0  0  0  0  0  0  0  0
    2.5942    1.0083    5.4166 C   0  0  0  0  0  0  0  0  0  0  0  0
    2.5030   -0.2624    5.8671 C   0  0  0  0  0  0  0  0  0  0  0  0
    2.7942   -0.6276    7.1818 O   0  0  0  0  0  0  0  0  0  0  0  0
    3.0990    0.3520    8.1205 C   0  0  0  0  0  0  0  0  0  0  0  0
    3.1281    1.6556    7.7915 C   0  0  0  0  0  0  0  0  0  0  0  0
    2.9162    2.1209    6.3824 C   0  0  0  0  0  0  0  0  0  0  0  0
    3.3884    2.7312    8.8093 C   0  0  3  0  0  0  0  0  0  0  0  0
    2.1974    3.4856    8.9583 O   0  0  0  0  0  0  0  0  0  0  0  0
    2.1814    4.4713    9.8967 C   0  0  0  0  0  0  0  0  0  0  0  0
    1.3130    5.3280    9.9101 O   0  0  0  0  0  0  0  0  0  0  0  0
    3.1817    4.4403   10.8113 O   0  0  0  0  0  0  0  0  0  0  0  0
    3.9433    3.2735   11.0982 C   0  0  3  0  0  0  0  0  0  0  0  0
    3.6837    2.1665   10.1439 C   0  0  0  0  0  0  0  0  0  0  0  0
    3.6781    0.8401   10.4031 C   0  0  0  0  0  0  0  0  0  0  0  0
    3.3569   -0.0667    9.4036 O   0  3  0  0  0  0  0  0  0  0  0  0
    3.9837    0.2669   11.7330 C   0  0  0  0  0  0  0  0  0  0  0  0
    2.9427    0.0130   12.6838 O   0  0  0  0  0  0  0  0  0  0  0  0
    3.6208   -1.0880   12.0477 O   0  0  0  0  0  0  0  0  0  0  0  0
    5.3156    3.5766   10.9457 O   0  0  0  0  0  0  0  0  0  0  0  0
    1.8871   -1.3525    5.0792 C   0  0  0  0  0  0  0  0  0  0  0  0
    0.5119   -1.5229    5.2738 C   0  0  0  0  0  0  0  0  0  0  0  0
   -0.1309   -2.5268    4.5904 C   0  0  0  0  0  0  0  0  0  0  0  0
   -1.4408   -2.7069    4.8023 F   0  0  0  0  0  0  0  0  0  0  0  0
    0.4844   -3.3558    3.7370 N   0  0  0  0  0  0  0  0  0  0  0  0
    1.8028   -3.2083    3.5248 C   0  0  0  0  0  0  0  0  0  0  0  0
    2.5736   -2.2179    4.1841 C   0  0  0  0  0  0  0  0  0  0  0  0
    3.9657   -2.1722    3.9239 C   0  0  0  0  0  0  0  0  0  0  0  0
    4.5708   -3.0754    3.0311 C   0  0  0  0  0  0  0  0  0  0  0  0
    6.0267   -3.0854    2.8611 C   0  0  0  0  0  0  0  0  0  0  0  0
    6.7447   -2.4347    3.6057 O   0  0  0  0  0  0  0  0  0  0  0  0
    6.6059   -3.9967    1.8007 C   0  0  0  0  0  0  0  0  0  0  0  0
    7.8179   -4.0931    1.6586 O   0  0  0  0  0  0  0  0  0  0  0  0
    5.5917   -4.7253    0.9445 C   0  0  1  0  0  0  0  0  0  0  0  0
    4.3059   -4.9598    1.5133 O   0  0  0  0  0  0  0  0  0  0  0  0
    3.8103   -4.0199    2.3691 C   0  0  0  0  0  0  0  0  0  0  0  0
    2.4410   -4.0737    2.6342 C   0  0  0  0  0  0  0  0  0  0  0  0
    1.7145   -5.0165    2.0075 F   0  0  0  0  0  0  0  0  0  0  0  0
    5.4402   -4.0597   -0.3848 C   0  0  1  0  0  0  0  0  0  0  0  0
    4.9848   -2.6832   -0.3638 O   0  0  0  0  0  0  0  0  0  0  0  0
    6.4521   -4.3790   -1.3373 O   0  0  0  0  0  0  0  0  0  0  0  0
    5.1979   -4.7797   -1.6420 C   0  0  0  0  0  0  0  0  0  0  0  0
    4.5053   -4.4769   -2.5785 O   0  0  0  0  0  0  0  0  0  0  0  0
    4.3778    2.1458    3.1908 C   0  0  0  0  0  0  0  0  0  0  0  0
    4.8618    1.0236    3.1309 O   0  0  0  0  0  0  0  0  0  0  0  0
    5.2322    3.3781    3.0053 C   0  0  0  0  0  0  0  0  0  0  0  0
    6.4389    3.2581    2.8593 O   0  0  0  0  0  0  0  0  0  0  0  0
    4.6129    4.7577    3.0612 C   0  0  0  0  0  0  0  0  0  0  0  0
    5.2280    5.7528    2.7193 O   0  0  0  0  0  0  0  0  0  0  0  0
  1  2  1  0  0  0  0
  2  3  2  0  0  0  0
  3  4  1  0  0  0  0
  3 53  1  0  0  0  0
  4  5  1  0  0  0  0
  5  6  1  1  0  0  0
  5 49  1  0  0  0  0
  6  7  1  0  0  0  0
  7  8  2  0  0  0  0
  7 12  1  0  0  0  0
  8  9  1  0  0  0  0
  8 26  1  0  0  0  0
  9 10  1  0  0  0  0
 10 11  2  0  0  0  0
 10 21  1  0  0  0  0
 11 12  1  0  0  0  0
 11 13  1  0  0  0  0
 13 14  1  0  0  0  0
 13 19  1  0  0  0  0
 14 15  1  0  0  0  0
 15 16  2  0  0  0  0
 15 17  1  0  0  0  0
 17 18  1  0  0  0  0
 18 19  1  0  0  0  0
 18 25  1  0  0  0  0
 19 20  2  0  0  0  0
 20 21  1  0  0  0  0
 20 22  1  0  0  0  0
 22 23  1  0  0  0  0
 22 24  1  0  0  0  0
 23 24  1  0  0  0  0
 26 27  2  0  0  0  0
 26 32  1  0  0  0  0
 27 28  1  0  0  0  0
 28 29  1  0  0  0  0
 28 30  2  0  0  0  0
 30 31  1  0  0  0  0
 31 32  2  0  0  0  0
 31 42  1  0  0  0  0
 32 33  1  0  0  0  0
 33 34  2  0  0  0  0
 34 35  1  0  0  0  0
 34 41  1  0  0  0  0
 35 36  2  0  0  0  0
 35 37  1  0  0  0  0
 37 38  2  0  0  0  0
 39 37  1  1  0  0  0
 39 40  1  0  0  0  0
 39 44  1  0  0  0  0
 40 41  1  0  0  0  0
 41 42  2  0  0  0  0
 42 43  1  0  0  0  0
 44 45  1  1  0  0  0
 44 46  1  0  0  0  0
 44 47  1  0  0  0  0
 46 47  1  0  0  0  0
 47 48  2  0  0  0  0
 49 50  2  0  0  0  0
 49 51  1  0  0  0  0
 51 52  2  0  0  0  0
 51 53  1  0  0  0  0
 53 54  2  0  0  0  0
M  CHG  1  21   1
M  END
$$$$