
 OpenBabel11232015343D

 53 61  0  0  1  0  0  0  0  0999 V2000
    2.7837    1.5423    7.0678 O   0  0  0  0  0  0  0  0  0  0  0  0
    3.0108    0.5406    6.1599 C   0  0  0  0  0  0  0  0  0  0  0  0
    2.6939    0.6505    4.8643 C   0  0  0  0  0  0  0  0  0  0  0  0
    2.0642    1.7788    4.3651 O   0  0  0  0  0  0  0  0  0  0  0  0
    2.6340    2.2221    3.1358 C   0  0  2  0  0  0  0  0  0  0  0  0
    2.0361    3.4615    2.6942 O   0  0  0  0  0  0  0  0  0  0  0  0
    2.1276    4.5372    3.5676 C   0  0  0  0  0  0  0  0  0  0  0  0
    1.1638    5.4816    3.6090 C   0  0  0  0  0  0  0  0  0  0  0  0
    1.1879    6.5684    4.4757 O   0  0  0  0  0  0  0  0  0  0  0  0
    2.2326    6.6823    5.3829 C   0  0  0  0  0  0  0  0  0  0  0  0
    3.2672    5.8282    5.3667 C   0  0  0  0  0  0  0  0  0  0  0  0
    3.3577    4.6733    4.4337 C   0  0  0  0  0  0  0  0  0  0  0  0
    4.3512    6.0124    6.3659 C   0  0  0  0  0  0  0  0  0  0  0  0
    5.3700    5.2122    6.3805 N   0  0  0  0  0  0  0  0  0  0  0  0
    6.3074    5.4384    7.3438 C   0  0  0  0  0  0  0  0  0  0  0  0
    7.2752    4.5988    7.3488 N   0  0  0  0  0  0  0  0  0  0  0  0
    6.3235    6.4276    8.2814 N   0  0  0  0  0  0  0  0  0  0  0  0
    5.3247    7.2440    8.2815 C   0  0  0  0  0  0  0  0  0  0  0  0
    4.2103    7.1307    7.3322 C   0  0  0  0  0  0  0  0  0  0  0  0
    3.1218    7.9246    7.2787 C   0  0  0  0  0  0  0  0  0  0  0  0
    2.1586    7.6966    6.3023 N   0  0  0  0  0  0  0  0  0  0  0  0
    2.8576    9.0580    8.1961 C   0  0  0  0  0  0  0  0  0  0  0  0
    3.3243   10.3827    7.9036 O   0  0  0  0  0  0  0  0  0  0  0  0
    1.9135   10.0930    7.8643 O   0  0  0  0  0  0  0  0  0  0  0  0
   -0.0070    5.4718    2.7221 C   0  0  0  0  0  0  0  0  0  0  0  0
    0.1061    6.1000    1.4893 C   0  0  0  0  0  0  0  0  0  0  0  0
   -0.9297    6.1324    0.6474 N   0  3  0  0  0  0  0  0  0  0  0  0
   -0.7904    6.7547   -0.5384 F   0  0  0  0  0  0  0  0  0  0  0  0
   -2.0935    5.5836    0.9316 N   0  0  0  0  0  0  0  0  0  0  0  0
   -2.2582    4.9412    2.0955 C   0  0  0  0  0  0  0  0  0  0  0  0
   -1.2273    4.8605    3.0500 C   0  0  0  0  0  0  0  0  0  0  0  0
   -1.4554    4.1682    4.2629 C   0  0  0  0  0  0  0  0  0  0  0  0
   -2.6702    3.5170    4.4947 C   0  0  0  0  0  0  0  0  0  0  0  0
   -2.8665    2.7278    5.7147 C   0  0  0  0  0  0  0  0  0  0  0  0
   -2.0120    2.6580    6.5805 O   0  0  0  0  0  0  0  0  0  0  0  0
   -4.1781    1.9907    5.8222 C   0  0  0  0  0  0  0  0  0  0  0  0
   -4.6486    1.7034    6.9114 O   0  0  0  0  0  0  0  0  0  0  0  0
   -4.8172    1.6884    4.4870 C   0  0  1  0  0  0  0  0  0  0  0  0
   -4.8425    2.8417    3.6176 O   0  0  0  0  0  0  0  0  0  0  0  0
   -3.6757    3.5576    3.5418 C   0  0  0  0  0  0  0  0  0  0  0  0
   -3.4710    4.3046    2.3772 C   0  0  0  0  0  0  0  0  0  0  0  0
   -4.4783    4.3712    1.4416 O   0  0  0  0  0  0  0  0  0  0  0  0
   -4.2310    0.4541    3.8387 C   0  0  1  0  0  0  0  0  0  0  0  0
   -4.3602   -0.7667    4.5898 O   0  0  0  0  0  0  0  0  0  0  0  0
   -4.4746    0.3204    2.4281 O   0  0  0  0  0  0  0  0  0  0  0  0
   -3.1999    0.4574    2.8153 C   0  0  0  0  0  0  0  0  0  0  0  0
   -2.3353    1.2556    2.5090 O   0  0  0  0  0  0  0  0  0  0  0  0
    2.4184    1.1898    2.0407 C   0  0  0  0  0  0  0  0  0  0  0  0
    2.1639    1.4463    0.8719 O   0  0  0  0  0  0  0  0  0  0  0  0
    2.6111   -0.2332    2.5179 C   0  0  0  0  0  0  0  0  0  0  0  0
    2.4251   -1.1682    1.7561 O   0  0  0  0  0  0  0  0  0  0  0  0
    3.0210   -0.4823    3.9556 C   0  0  0  0  0  0  0  0  0  0  0  0
    3.6006   -1.4975    4.2969 O   0  0  0  0  0  0  0  0  0  0  0  0
  1  2  1  0  0  0  0
  2  3  2  0  0  0  0
  3  4  1  0  0  0  0
  3 52  1  0  0  0  0
  4  5  1  0  0  0  0
  5  6  1  6  0  0  0
  5 48  1  0  0  0  0
  6  7  1  0  0  0  0
  7  8  2  0  0  0  0
  7 12  1  0  0  0  0
  8  9  1  0  0  0  0
  8 25  1  0  0  0  0
  9 10  1  0  0  0  0
 10 11  2  0  0  0  0
 10 21  1  0  0  0  0
 11 12  1  0  0  0  0
 11 13  1  0  0  0  0
 13 14  2  0  0  0  0
 13 19  1  0  0  0  0
 14 15  1  0  0  0  0
 15 16  2  0  0  0  0
 15 17  1  0  0  0  0
 17 18  2  0  0  0  0
 18 19  1  0  0  0  0
 19 20  2  0  0  0  0
 20 21  1  0  0  0  0
 20 22  1  0  0  0  0
 22 23  1  0  0  0  0
 22 24  1  0  0  0  0
 23 24  1  0  0  0  0
 25 26  2  0  0  0  0
 25 31  1  0  0  0  0
 26 27  1  0  0  0  0
 27 28  1  0  0  0  0
 27 29  2  0  0  0  0
 29 30  1  0  0  0  0
 30 31  2  0  0  0  0
 30 41  1  0  0  0  0
 31 32  1  0  0  0  0
 32 33  2  0  0  0  0
 33 34  1  0  0  0  0
 33 40  1  0  0  0  0
 34 35  2  0  0  0  0
 34 36  1  0  0  0  0
 36 37  2  0  0  0  0
 38 36  1  1  0  0  0
 38 39  1  0  0  0  0
 38 43  1  0  0  0  0
 39 40  1  0  0  0  0
 40 41  2  0  0  0  0
 41 42  1  0  0  0  0
 43 44  1  1  0  0  0
 43 45  1  0  0  0  0
 43 46  1  0  0  0  0
 45 46  1  0  0  0  0
 46 47  2  0  0  0  0
 48 49  2  0  0  0  0
 48 50  1  0  0  0  0
 50 51  2  0  0  0  0
 50 52  1  0  0  0  0
 52 53  2  0  0  0  0
M  CHG  1  27   1
M  END
$$$$