
 OpenBabel11232003343D

 54 62  0  0  1  0  0  0  0  0999 V2000
   -0.3515    1.8480   -4.8557 O   0  0  0  0  0  0  0  0  0  0  0  0
   -0.3565    1.5131   -3.5205 C   0  0  0  0  0  0  0  0  0  0  0  0
    0.0458    0.3273   -3.0436 C   0  0  0  0  0  0  0  0  0  0  0  0
    0.4396   -0.6931   -3.8906 O   0  0  0  0  0  0  0  0  0  0  0  0
    1.6296   -1.3506   -3.4655 C   0  0  2  0  0  0  0  0  0  0  0  0
    2.0053   -2.3801   -4.4294 O   0  0  0  0  0  0  0  0  0  0  0  0
    2.2301   -2.0320   -5.7560 C   0  0  0  0  0  0  0  0  0  0  0  0
    2.1087   -2.9307   -6.7674 C   0  0  0  0  0  0  0  0  0  0  0  0
    2.2944   -2.5305   -8.1154 O   0  0  0  0  0  0  0  0  0  0  0  0
    2.4032   -1.1818   -8.4616 C   0  0  0  0  0  0  0  0  0  0  0  0
    2.6283   -0.2642   -7.5090 C   0  0  0  0  0  0  0  0  0  0  0  0
    2.6578   -0.6133   -6.0464 C   0  0  0  0  0  0  0  0  0  0  0  0
    2.6925    1.1900   -7.8116 C   0  0  3  0  0  0  0  0  0  0  0  0
    3.7824    1.8236   -7.1836 O   0  0  0  0  0  0  0  0  0  0  0  0
    3.6684    3.1917   -7.2542 C   0  0  0  0  0  0  0  0  0  0  0  0
    4.0762    3.9411   -6.3906 O   0  0  0  0  0  0  0  0  0  0  0  0
    3.0385    3.6071   -8.4050 O   0  0  0  0  0  0  0  0  0  0  0  0
    3.3918    2.8000   -9.4923 C   0  0  3  0  0  0  0  0  0  0  0  0
    2.8575    1.4154   -9.2773 C   0  0  0  0  0  0  0  0  0  0  0  0
    2.5147    0.5089  -10.2403 C   0  0  0  0  0  0  0  0  0  0  0  0
    2.2308   -0.8295   -9.8134 O   0  3  0  0  0  0  0  0  0  0  0  0
    2.4530    0.9820  -11.7208 C   0  0  3  0  0  0  0  0  0  0  0  0
    1.2348    1.4605  -12.1043 O   0  3  0  0  0  0  0  0  0  0  0  0
    1.5311    0.3228  -12.4796 O   0  3  0  0  0  0  0  0  0  0  0  0
    2.7602    3.1809  -10.7121 O   0  0  0  0  0  0  0  0  0  0  0  0
    1.8227   -4.4154   -6.5914 C   0  0  0  0  0  0  0  0  0  0  0  0
    2.2841   -4.9791   -5.4552 N   0  0  0  0  0  0  0  0  0  0  0  0
    2.1435   -6.2931   -5.2641 N   0  3  0  0  0  0  0  0  0  0  0  0
    2.5994   -6.8277   -4.1134 F   0  0  0  0  0  0  0  0  0  0  0  0
    1.5975   -7.1050   -6.1803 C   0  0  0  0  0  0  0  0  0  0  0  0
    1.1198   -6.5953   -7.3841 C   0  0  0  0  0  0  0  0  0  0  0  0
    1.2082   -5.2069   -7.5938 C   0  0  0  0  0  0  0  0  0  0  0  0
    0.6621   -4.7181   -8.7966 C   0  0  0  0  0  0  0  0  0  0  0  0
    0.1268   -5.5631   -9.7723 C   0  0  0  0  0  0  0  0  0  0  0  0
   -0.3345   -4.9728  -11.0240 C   0  0  0  0  0  0  0  0  0  0  0  0
    0.0097   -3.8246  -11.3056 O   0  0  0  0  0  0  0  0  0  0  0  0
   -1.1644   -5.8733  -11.9162 C   0  0  0  0  0  0  0  0  0  0  0  0
   -1.3378   -5.5328  -13.0758 O   0  0  0  0  0  0  0  0  0  0  0  0
   -1.6773   -7.1381  -11.2375 C   0  0  1  0  0  0  0  0  0  0  0  0
   -0.6447   -7.7513  -10.4195 O   0  0  0  0  0  0  0  0  0  0  0  0
    0.0175   -6.9216   -9.5599 C   0  0  0  0  0  0  0  0  0  0  0  0
    0.5355   -7.4319   -8.3674 C   0  0  0  0  0  0  0  0  0  0  0  0
    0.4418   -8.7453   -8.1192 F   0  0  0  0  0  0  0  0  0  0  0  0
   -2.9811   -6.9204  -10.4914 C   0  0  1  0  0  0  0  0  0  0  0  0
   -4.0893   -6.4434  -11.2740 O   0  0  0  0  0  0  0  0  0  0  0  0
   -3.3015   -7.9213   -9.5076 O   0  0  0  0  0  0  0  0  0  0  0  0
   -3.0994   -6.6823   -9.0601 C   0  0  0  0  0  0  0  0  0  0  0  0
   -2.3209   -6.1903   -8.2515 O   0  0  0  0  0  0  0  0  0  0  0  0
    1.4558   -2.0027   -2.0999 C   0  0  0  0  0  0  0  0  0  0  0  0
    1.8800   -3.1140   -1.8148 O   0  0  0  0  0  0  0  0  0  0  0  0
    0.7235   -1.1331   -1.0961 C   0  0  0  0  0  0  0  0  0  0  0  0
    0.7107   -1.4486    0.0811 O   0  0  0  0  0  0  0  0  0  0  0  0
    0.0301    0.1333   -1.5632 C   0  0  0  0  0  0  0  0  0  0  0  0
   -0.4605    0.9351   -0.7892 O   0  0  0  0  0  0  0  0  0  0  0  0
  1  2  1  0  0  0  0
  2  3  2  0  0  0  0
  3  4  1  0  0  0  0
  3 53  1  0  0  0  0
  4  5  1  0  0  0  0
  5  6  1  6  0  0  0
  5 49  1  0  0  0  0
  6  7  1  0  0  0  0
  7  8  2  0  0  0  0
  7 12  1  0  0  0  0
  8  9  1  0  0  0  0
  8 26  1  0  0  0  0
  9 10  1  0  0  0  0
 10 11  2  0  0  0  0
 10 21  1  0  0  0  0
 11 12  1  0  0  0  0
 11 13  1  0  0  0  0
 13 14  1  0  0  0  0
 13 19  1  0  0  0  0
 14 15  1  0  0  0  0
 15 16  2  0  0  0  0
 15 17  1  0  0  0  0
 17 18  1  0  0  0  0
 18 19  1  0  0  0  0
 18 25  1  0  0  0  0
 19 20  2  0  0  0  0
 20 21  1  0  0  0  0
 20 22  1  0  0  0  0
 22 23  1  0  0  0  0
 22 24  1  0  0  0  0
 23 24  2  0  0  0  0
 26 27  2  0  0  0  0
 26 32  1  0  0  0  0
 27 28  1  0  0  0  0
 28 29  1  0  0  0  0
 28 30  2  0  0  0  0
 30 31  1  0  0  0  0
 31 32  2  0  0  0  0
 31 42  1  0  0  0  0
 32 33  1  0  0  0  0
 33 34  2  0  0  0  0
 34 35  1  0  0  0  0
 34 41  1  0  0  0  0
 35 36  2  0  0  0  0
 35 37  1  0  0  0  0
 37 38  2  0  0  0  0
 39 37  1  1  0  0  0
 39 40  1  0  0  0  0
 39 44  1  0  0  0  0
 40 41  1  0  0  0  0
 41 42  2  0  0  0  0
 42 43  1  0  0  0  0
 44 45  1  6  0  0  0
 44 46  1  0  0  0  0
 44 47  1  0  0  0  0
 46 47  1  0  0  0  0
 47 48  2  0  0  0  0
 49 50  2  0  0  0  0
 49 51  1  0  0  0  0
 51 52  2  0  0  0  0
 51 53  1  0  0  0  0
 53 54  2  0  0  0  0
M  CHG  4  21   1  23   1  24   1  28   1
M  END
$$$$