
 OpenBabel10242006033D

 87101  0  0  1  0  0  0  0  0999 V2000
    5.0507   -0.7165    0.0196 O   0  0  0  0  0  0  0  0  0  0  0  0
    4.2247    0.3945   -0.3829 C   0  0  3  0  0  0  0  0  0  0  0  0
    3.0525    0.6236    0.5925 C   0  0  3  0  0  0  0  0  0  0  0  0
    2.2590   -0.5868    0.6714 O   0  0  0  0  0  0  0  0  0  0  0  0
    1.8633   -1.1427   -0.5122 C   0  0  0  0  0  0  0  0  0  0  0  0
    2.4067   -0.7495   -1.7290 C   0  0  0  0  0  0  0  0  0  0  0  0
    3.6692    0.0623   -1.7773 C   0  0  3  0  0  0  0  0  0  0  0  0
    4.6233   -0.6862   -2.5498 O   0  0  0  0  0  0  0  0  0  0  0  0
    1.7150   -1.0967   -2.8900 C   0  0  0  0  0  0  0  0  0  0  0  0
    0.5435   -1.8823   -2.9005 C   0  0  0  0  0  0  0  0  0  0  0  0
    0.1769   -2.5265   -1.6819 C   0  0  0  0  0  0  0  0  0  0  0  0
    0.8370   -2.0845   -0.5064 C   0  0  0  0  0  0  0  0  0  0  0  0
    0.3872   -2.5067    0.6965 F   0  0  0  0  0  0  0  0  0  0  0  0
   -0.8306   -3.5080   -1.7731 C   0  0  0  0  0  0  0  0  0  0  0  0
   -1.2962   -4.4761   -0.4167 Cl  0  0  0  0  0  0  0  0  0  0  0  0
   -1.5010   -3.8003   -2.9868 C   0  0  0  0  0  0  0  0  0  0  0  0
   -1.3102   -3.0431   -4.1607 C   0  0  0  0  0  0  0  0  0  0  0  0
   -0.2839   -2.0601   -4.0540 C   0  0  0  0  0  0  0  0  0  0  0  0
   -0.0805   -0.8619   -5.3452 Cl  0  0  0  0  0  0  0  0  0  0  0  0
   -2.1090   -3.3426   -5.4313 C   0  0  0  0  0  0  0  0  0  0  0  0
   -1.5047   -3.2005   -6.7142 C   0  0  0  0  0  0  0  0  0  0  0  0
   -2.1168   -3.4823   -7.9973 C   0  0  0  0  0  0  0  0  0  0  0  0
   -1.6528   -3.2402   -9.4569 C   0  0  0  0  0  0  0  0  0  0  0  0
   -2.4482   -3.7710  -10.4969 C   0  0  0  0  0  0  0  0  0  0  0  0
   -2.1717   -3.6683  -11.8785 N   0  0  0  0  0  0  0  0  0  0  0  0
   -3.6340   -4.3952  -10.1231 C   0  0  0  0  0  0  0  0  0  0  0  0
   -4.0584   -4.5505   -8.8696 N   0  0  0  0  0  0  0  0  0  0  0  0
   -3.3703   -4.1142   -7.8250 N   0  3  0  0  0  0  0  0  0  0  0  0
   -3.9792   -4.2821   -6.5870 N   0  3  0  0  0  0  0  0  0  0  0  0
   -3.4533   -3.7802   -5.4350 C   0  0  0  0  0  0  0  0  0  0  0  0
   -4.3650   -3.6373   -4.2359 C   0  0  0  0  0  0  0  0  0  0  0  0
   -5.4474   -5.1986   -6.5196 Cl  0  0  0  0  0  0  0  0  0  0  0  0
   -0.2998   -2.3759   -9.8962 N   0  3  0  0  0  0  0  0  0  0  0  0
    0.9583   -2.4845   -9.2766 N   0  3  0  0  0  0  0  0  0  0  0  0
    1.3341   -3.7986   -8.2305 Cl  0  0  0  0  0  0  0  0  0  0  0  0
    2.0489   -1.6823   -9.6152 C   0  0  0  0  0  0  0  0  0  0  0  0
    2.0806   -0.7550  -10.6921 C   0  0  0  0  0  0  0  0  0  0  0  0
    0.8992   -0.6903  -11.4070 C   0  0  0  0  0  0  0  0  0  0  0  0
   -0.3052   -1.4658  -10.9894 C   0  0  0  0  0  0  0  0  0  0  0  0
   -1.4494   -1.2715  -11.7756 N   0  0  0  0  0  0  0  0  0  0  0  0
    0.9004    0.1284  -12.4694 N   0  0  0  0  0  0  0  0  0  0  0  0
    1.9191    0.9204  -12.8843 N   0  3  0  0  0  0  0  0  0  0  0  0
    3.1117    0.9748  -12.1990 C   0  0  0  0  0  0  0  0  0  0  0  0
    3.1790    0.0800  -11.0985 N   0  3  0  0  0  0  0  0  0  0  0  0
    4.3516    0.0216  -10.3882 N   0  0  0  0  0  0  0  0  0  0  0  0
    5.4199    0.8005  -10.6906 N   0  3  0  0  0  0  0  0  0  0  0  0
    6.6909    0.6836   -9.8885 C   0  0  0  0  0  0  0  0  0  0  0  0
    5.3444    1.6820  -11.6982 C   0  0  0  0  0  0  0  0  0  0  0  0
    4.2139    1.7780  -12.4360 N   0  3  0  0  0  0  0  0  0  0  0  0
    4.2667    3.0246  -13.6169 Cl  0  0  0  0  0  0  0  0  0  0  0  0
    1.5741    1.7697  -14.3313 Cl  0  0  0  0  0  0  0  0  0  0  0  0
    2.1804    1.9123    0.3080 C   0  0  3  0  0  0  0  0  0  0  0  0
    3.0742    3.1724    0.3887 C   0  0  0  0  0  0  0  0  0  0  0  0
    2.2951    4.4841    0.3655 C   0  0  0  0  0  0  0  0  0  0  0  0
    1.2269    4.5224    1.4145 C   0  0  0  0  0  0  0  0  0  0  0  0
    0.5252    3.3720    1.7312 C   0  0  0  0  0  0  0  0  0  0  0  0
    0.9543    1.9883    1.2748 C   0  0  3  0  0  0  0  0  0  0  0  0
   -0.2945    1.2614    0.7139 C   0  0  3  0  0  0  0  0  0  0  0  0
   -0.5433    1.6888   -0.5663 F   0  0  0  0  0  0  0  0  0  0  0  0
   -1.5795    1.4217    1.5410 C   0  0  0  0  0  0  0  0  0  0  0  0
   -1.3234    2.1594    2.8598 C   0  0  3  0  0  0  0  0  0  0  0  0
   -0.6408    3.4716    2.5216 C   0  0  0  0  0  0  0  0  0  0  0  0
   -1.1496    4.7279    2.9363 C   0  0  0  0  0  0  0  0  0  0  0  0
   -0.3047    5.8696    2.8398 C   0  0  0  0  0  0  0  0  0  0  0  0
    0.8574    5.7289    2.0348 C   0  0  0  0  0  0  0  0  0  0  0  0
   -0.5681    7.1803    3.5300 C   0  0  0  0  0  0  0  0  0  0  0  0
   -1.1920    7.2546    4.7937 C   0  0  0  0  0  0  0  0  0  0  0  0
   -1.5318    8.4794    5.4112 C   0  0  0  0  0  0  0  0  0  0  0  0
   -2.6511    8.5058    6.4566 C   0  0  3  0  0  0  0  0  0  0  0  0
   -3.9675    8.2534    5.6808 C   0  0  0  0  0  0  0  0  0  0  0  0
   -5.2165    8.3515    6.5404 C   0  0  0  0  0  0  0  0  0  0  0  0
   -5.2966    9.7052    7.2408 C   0  0  3  0  0  0  0  0  0  0  0  0
   -4.0412    9.9182    8.1176 C   0  0  3  0  0  0  0  0  0  0  0  0
   -2.7208    9.8164    7.2895 C   0  0  3  0  0  0  0  0  0  0  0  0
   -2.4714   11.0463    6.3935 C   0  0  0  0  0  0  0  0  0  0  0  0
   -1.1291   10.9659    5.6542 C   0  0  3  0  0  0  0  0  0  0  0  0
   -1.0070    9.6665    4.8944 C   0  0  0  0  0  0  0  0  0  0  0  0
   -0.3549    9.6252    3.6593 C   0  0  0  0  0  0  0  0  0  0  0  0
   -0.2058    8.4173    2.9705 C   0  0  0  0  0  0  0  0  0  0  0  0
    0.2990    8.4821    1.7268 F   0  0  0  0  0  0  0  0  0  0  0  0
    0.0594   11.1298    6.6152 C   0  0  0  0  0  0  0  0  0  0  0  0
   -4.1208   11.2256    8.9183 C   0  0  0  0  0  0  0  0  0  0  0  0
   -6.5465    9.7367    8.0028 N   0  0  0  0  0  0  0  0  0  0  0  0
   -2.6090    4.8040    3.3890 C   0  0  3  0  0  0  0  0  0  0  0  0
   -3.3987    3.4966    3.2367 C   0  0  0  0  0  0  0  0  0  0  0  0
   -2.5742    2.3207    3.7184 C   0  0  0  0  0  0  0  0  0  0  0  0
   -3.4928    6.0304    2.4114 Cl  0  0  0  0  0  0  0  0  0  0  0  0
  1  2  1  0  0  0  0
  2  3  1  0  0  0  0
  2  7  1  0  0  0  0
  3  4  1  0  0  0  0
  3 52  1  0  0  0  0
  4  5  1  0  0  0  0
  5  6  2  0  0  0  0
  5 12  1  0  0  0  0
  6  7  1  0  0  0  0
  6  9  1  0  0  0  0
  7  8  1  0  0  0  0
  9 10  2  0  0  0  0
 10 11  1  0  0  0  0
 10 18  1  0  0  0  0
 11 12  2  0  0  0  0
 11 14  1  0  0  0  0
 12 13  1  0  0  0  0
 14 15  1  0  0  0  0
 14 16  2  0  0  0  0
 16 17  1  0  0  0  0
 17 18  2  0  0  0  0
 17 20  1  0  0  0  0
 18 19  1  0  0  0  0
 20 21  2  0  0  0  0
 20 30  1  0  0  0  0
 21 22  1  0  0  0  0
 22 23  2  0  0  0  0
 22 28  1  0  0  0  0
 23 24  1  0  0  0  0
 23 33  1  0  0  0  0
 24 25  1  0  0  0  0
 24 26  2  0  0  0  0
 26 27  1  0  0  0  0
 27 28  2  0  0  0  0
 28 29  1  0  0  0  0
 29 30  2  0  0  0  0
 29 32  1  0  0  0  0
 30 31  1  0  0  0  0
 33 34  2  0  0  0  0
 33 39  1  0  0  0  0
 34 35  1  0  0  0  0
 34 36  1  0  0  0  0
 36 37  2  0  0  0  0
 37 38  1  0  0  0  0
 37 44  1  0  0  0  0
 38 39  2  0  0  0  0
 38 41  1  0  0  0  0
 39 40  1  0  0  0  0
 41 42  2  0  0  0  0
 42 43  1  0  0  0  0
 42 51  1  0  0  0  0
 43 44  2  0  0  0  0
 43 49  1  0  0  0  0
 44 45  1  0  0  0  0
 45 46  2  0  0  0  0
 46 47  1  0  0  0  0
 46 48  1  0  0  0  0
 48 49  2  0  0  0  0
 49 50  1  0  0  0  0
 52 53  1  0  0  0  0
 52 57  1  0  0  0  0
 53 54  1  0  0  0  0
 54 55  1  0  0  0  0
 55 56  2  0  0  0  0
 55 65  1  0  0  0  0
 56 57  1  0  0  0  0
 56 62  1  0  0  0  0
 57 58  1  0  0  0  0
 58 59  1  0  0  0  0
 58 60  1  0  0  0  0
 60 61  1  0  0  0  0
 61 62  1  0  0  0  0
 61 86  1  0  0  0  0
 62 63  2  0  0  0  0
 63 64  1  0  0  0  0
 63 84  1  0  0  0  0
 64 65  2  0  0  0  0
 64 66  1  0  0  0  0
 66 67  2  0  0  0  0
 66 79  1  0  0  0  0
 67 68  1  0  0  0  0
 68 69  1  0  0  0  0
 68 77  2  0  0  0  0
 69 70  1  0  0  0  0
 69 74  1  0  0  0  0
 70 71  1  0  0  0  0
 71 72  1  0  0  0  0
 72 73  1  0  0  0  0
 72 83  1  0  0  0  0
 73 74  1  0  0  0  0
 73 82  1  0  0  0  0
 74 75  1  0  0  0  0
 75 76  1  0  0  0  0
 76 77  1  0  0  0  0
 76 81  1  0  0  0  0
 77 78  1  0  0  0  0
 78 79  2  0  0  0  0
 79 80  1  0  0  0  0
 84 85  1  0  0  0  0
 84 87  1  0  0  0  0
 85 86  1  0  0  0  0
M  CHG  8  28   1  29   1  33   1  34   1  42   1  44   1  46   1  49   1
M  END
$$$$