
 OpenBabel11242001213D

 54 63  0  0  1  0  0  0  0  0999 V2000
   13.9823    9.7261  -18.0866 N   0  0  0  0  0  0  0  0  0  0  0  0
   13.0996   10.5615  -17.7872 N   0  0  0  0  0  0  0  0  0  0  0  0
   11.9164    9.9641  -17.3061 C   0  0  0  0  0  0  0  0  0  0  0  0
   10.7712   10.5947  -17.6187 N   0  0  0  0  0  0  0  0  0  0  0  0
    9.6319   10.0209  -17.1934 C   0  0  0  0  0  0  0  0  0  0  0  0
    9.5903    8.8499  -16.4687 C   0  0  0  0  0  0  0  0  0  0  0  0
   10.8253    8.3081  -16.1620 C   0  0  0  0  0  0  0  0  0  0  0  0
   11.9935    8.8416  -16.5669 N   0  0  0  0  0  0  0  0  0  0  0  0
   10.9068    7.0666  -15.3844 C   0  0  0  0  0  0  0  0  0  0  0  0
    9.7743    6.5258  -14.9078 C   0  0  0  0  0  0  0  0  0  0  0  0
    8.5476    7.1148  -15.0848 N   0  0  0  0  0  0  0  0  0  0  0  0
    8.3085    8.1670  -16.0763 C   0  0  3  0  0  0  0  0  0  0  0  0
    7.6108    7.6335  -17.3031 C   0  0  0  0  0  0  0  0  0  0  0  0
    8.2100    6.5007  -17.9389 O   0  0  0  0  0  0  0  0  0  0  0  0
    6.9862    6.3504  -17.1801 O   0  0  0  0  0  0  0  0  0  0  0  0
    9.7717    5.3252  -14.2195 O   0  0  0  0  0  0  0  0  0  0  0  0
   10.9626    4.6399  -14.0518 C   0  0  0  0  0  0  0  0  0  0  0  0
   12.1597    5.1140  -14.4468 C   0  0  0  0  0  0  0  0  0  0  0  0
   12.2480    6.4509  -15.1533 C   0  0  0  0  0  0  0  0  0  0  0  0
   13.3124    4.3551  -14.2819 O   0  0  0  0  0  0  0  0  0  0  0  0
   14.5293    5.1091  -14.1509 C   0  0  1  0  0  0  0  0  0  0  0  0
   14.5056    5.9005  -12.9668 O   0  0  0  0  0  0  0  0  0  0  0  0
   15.5894    6.7584  -12.8668 C   0  0  0  0  0  0  0  0  0  0  0  0
   15.4502    7.9560  -12.2869 C   0  0  0  0  0  0  0  0  0  0  0  0
   14.2486    8.3946  -11.7896 O   0  0  0  0  0  0  0  0  0  0  0  0
   16.9298    6.3509  -13.3871 C   0  0  0  0  0  0  0  0  0  0  0  0
   17.8738    7.1081  -13.5261 O   0  0  0  0  0  0  0  0  0  0  0  0
   17.0034    4.8914  -13.8075 C   0  0  0  0  0  0  0  0  0  0  0  0
   18.0748    4.3203  -13.9221 O   0  0  0  0  0  0  0  0  0  0  0  0
   15.7111    4.1592  -14.0890 C   0  0  0  0  0  0  0  0  0  0  0  0
   15.6687    2.9497  -14.2609 O   0  0  0  0  0  0  0  0  0  0  0  0
   10.7698    3.3090  -13.4725 C   0  0  0  0  0  0  0  0  0  0  0  0
   10.5374    2.2637  -14.3570 C   0  0  0  0  0  0  0  0  0  0  0  0
   10.2720    1.0393  -13.8982 N   0  3  0  0  0  0  0  0  0  0  0  0
   10.0364    0.0479  -14.7785 F   0  0  0  0  0  0  0  0  0  0  0  0
   10.2061    0.7636  -12.6066 N   0  0  0  0  0  0  0  0  0  0  0  0
   10.4387    1.7315  -11.7086 C   0  0  0  0  0  0  0  0  0  0  0  0
   10.7423    3.0481  -12.0932 C   0  0  0  0  0  0  0  0  0  0  0  0
   10.9956    4.0214  -11.0948 C   0  0  0  0  0  0  0  0  0  0  0  0
   10.9545    3.6799   -9.7379 C   0  0  0  0  0  0  0  0  0  0  0  0
   10.6343    2.3931   -9.3525 C   0  0  0  0  0  0  0  0  0  0  0  0
   10.3766    1.4423  -10.3442 C   0  0  0  0  0  0  0  0  0  0  0  0
   10.0617    0.1915   -9.9694 F   0  0  0  0  0  0  0  0  0  0  0  0
   10.5386    1.9823   -8.0535 O   0  0  0  0  0  0  0  0  0  0  0  0
   10.9227    2.9008   -6.9998 C   0  0  1  0  0  0  0  0  0  0  0  0
   11.6494    4.1289   -7.3570 C   0  0  0  0  0  0  0  0  0  0  0  0
   12.5217    4.6331   -6.6706 O   0  0  0  0  0  0  0  0  0  0  0  0
   11.2787    4.6696   -8.7106 C   0  0  0  0  0  0  0  0  0  0  0  0
   11.2976    5.8630   -8.9556 O   0  0  0  0  0  0  0  0  0  0  0  0
   10.0316    3.0156   -5.9177 O   0  0  0  0  0  0  0  0  0  0  0  0
   11.2895    2.3092   -5.6706 C   0  0  1  0  0  0  0  0  0  0  0  0
   11.2898    0.8257   -5.8570 O   0  0  0  0  0  0  0  0  0  0  0  0
   11.0325    1.3182   -4.6721 C   0  0  0  0  0  0  0  0  0  0  0  0
   11.4671    1.0870   -3.5664 O   0  0  0  0  0  0  0  0  0  0  0  0
  1  2  2  0  0  0  0
  2  3  1  0  0  0  0
  3  4  2  0  0  0  0
  3  8  1  0  0  0  0
  4  5  1  0  0  0  0
  5  6  2  0  0  0  0
  6  7  1  0  0  0  0
  6 12  1  0  0  0  0
  7  8  2  0  0  0  0
  7  9  1  0  0  0  0
  9 10  2  0  0  0  0
  9 19  1  0  0  0  0
 10 11  1  0  0  0  0
 10 16  1  0  0  0  0
 11 12  1  0  0  0  0
 12 13  1  0  0  0  0
 13 14  1  0  0  0  0
 13 15  1  0  0  0  0
 14 15  1  0  0  0  0
 16 17  1  0  0  0  0
 17 18  2  0  0  0  0
 17 32  1  0  0  0  0
 18 19  1  0  0  0  0
 18 20  1  0  0  0  0
 21 20  1  1  0  0  0
 21 22  1  0  0  0  0
 21 30  1  0  0  0  0
 22 23  1  0  0  0  0
 23 24  2  0  0  0  0
 23 26  1  0  0  0  0
 24 25  1  0  0  0  0
 26 27  2  0  0  0  0
 26 28  1  0  0  0  0
 28 29  2  0  0  0  0
 28 30  1  0  0  0  0
 30 31  2  0  0  0  0
 32 33  2  0  0  0  0
 32 38  1  0  0  0  0
 33 34  1  0  0  0  0
 34 35  1  0  0  0  0
 34 36  2  0  0  0  0
 36 37  1  0  0  0  0
 37 38  2  0  0  0  0
 37 42  1  0  0  0  0
 38 39  1  0  0  0  0
 39 40  2  0  0  0  0
 40 41  1  0  0  0  0
 40 48  1  0  0  0  0
 41 42  2  0  0  0  0
 41 44  1  0  0  0  0
 42 43  1  0  0  0  0
 45 44  1  6  0  0  0
 45 46  1  0  0  0  0
 45 50  1  0  0  0  0
 45 51  1  0  0  0  0
 46 47  2  0  0  0  0
 46 48  1  0  0  0  0
 48 49  2  0  0  0  0
 51 50  1  6  0  0  0
 51 52  1  0  0  0  0
 51 53  1  0  0  0  0
 52 53  1  0  0  0  0
 53 54  2  0  0  0  0
M  CHG  1  34   1
M  END
$$$$