
 OpenBabel11212014263D

 52 60  0  0  1  0  0  0  0  0999 V2000
    6.7772    2.2309    5.5670 O   0  0  0  0  0  0  0  0  0  0  0  0
    6.1383    3.0746    4.6966 C   0  0  0  0  0  0  0  0  0  0  0  0
    4.8947    2.8908    4.2378 C   0  0  0  0  0  0  0  0  0  0  0  0
    4.1451    1.7957    4.6334 O   0  0  0  0  0  0  0  0  0  0  0  0
    2.7238    2.0049    4.6125 C   0  0  2  0  0  0  0  0  0  0  0  0
    2.0292    0.8451    5.1219 O   0  0  0  0  0  0  0  0  0  0  0  0
    2.2929    0.4780    6.4412 C   0  0  0  0  0  0  0  0  0  0  0  0
    2.1441   -0.7945    6.8815 C   0  0  0  0  0  0  0  0  0  0  0  0
    2.4406   -1.1763    8.1948 O   0  0  0  0  0  0  0  0  0  0  0  0
    2.8815   -0.2344    9.1093 C   0  0  0  0  0  0  0  0  0  0  0  0
    3.0124    1.0599    8.7853 C   0  0  0  0  0  0  0  0  0  0  0  0
    2.7279    1.5573    7.4101 C   0  0  0  0  0  0  0  0  0  0  0  0
    3.4946    2.0616    9.8019 C   0  0  3  0  0  0  0  0  0  0  0  0
    2.5260    3.1037    9.8828 O   0  0  0  0  0  0  0  0  0  0  0  0
    2.8252    4.1345   10.7155 C   0  0  0  0  0  0  0  0  0  0  0  0
    2.2764    5.2221   10.6253 O   0  0  0  0  0  0  0  0  0  0  0  0
    3.8230    3.8846   11.6021 O   0  0  0  0  0  0  0  0  0  0  0  0
    3.9140    2.5726   12.1795 C   0  0  0  0  0  0  0  0  0  0  0  0
    3.6545    1.5054   11.1766 C   0  0  0  0  0  0  0  0  0  0  0  0
    3.5135    0.1844   11.4339 C   0  0  0  0  0  0  0  0  0  0  0  0
    3.1788   -0.6621   10.3820 N   0  0  0  0  0  0  0  0  0  0  0  0
    3.6633   -0.4418   12.7719 C   0  0  0  0  0  0  0  0  0  0  0  0
    4.9318   -0.9486   13.2199 O   0  0  0  0  0  0  0  0  0  0  0  0
    4.3433    0.1912   13.8712 O   0  0  0  0  0  0  0  0  0  0  0  0
    1.6697   -1.9498    6.0860 C   0  0  0  0  0  0  0  0  0  0  0  0
    0.3139   -2.2417    6.0889 C   0  0  0  0  0  0  0  0  0  0  0  0
   -0.1911   -3.3709    5.5613 N   0  0  0  0  0  0  0  0  0  0  0  0
    0.6563   -4.2926    5.0140 N   0  0  0  0  0  0  0  0  0  0  0  0
    1.9822   -4.0788    4.9573 C   0  0  0  0  0  0  0  0  0  0  0  0
    2.5391   -2.8841    5.4737 C   0  0  0  0  0  0  0  0  0  0  0  0
    3.9365   -2.6893    5.3789 C   0  0  0  0  0  0  0  0  0  0  0  0
    4.7587   -3.6474    4.7783 C   0  0  0  0  0  0  0  0  0  0  0  0
    6.2054   -3.4225    4.6684 C   0  0  0  0  0  0  0  0  0  0  0  0
    6.7532   -2.4886    5.2323 O   0  0  0  0  0  0  0  0  0  0  0  0
    6.9814   -4.4062    3.8164 C   0  0  0  0  0  0  0  0  0  0  0  0
    8.2040   -4.4139    3.8083 O   0  0  0  0  0  0  0  0  0  0  0  0
    6.1176   -5.2998    2.9565 C   0  0  1  0  0  0  0  0  0  0  0  0
    4.9444   -5.7857    3.6292 O   0  0  0  0  0  0  0  0  0  0  0  0
    4.2154   -4.8171    4.2718 C   0  0  0  0  0  0  0  0  0  0  0  0
    2.8429   -5.0360    4.3995 C   0  0  0  0  0  0  0  0  0  0  0  0
    2.3290   -6.2323    3.9472 O   0  0  0  0  0  0  0  0  0  0  0  0
    5.7527   -4.6246    1.6701 C   0  0  1  0  0  0  0  0  0  0  0  0
    5.0178   -3.3795    1.7731 O   0  0  0  0  0  0  0  0  0  0  0  0
    6.7659   -4.6626    0.6662 O   0  0  0  0  0  0  0  0  0  0  0  0
    5.6231   -5.3243    0.3913 C   0  0  0  0  0  0  0  0  0  0  0  0
    4.8266   -5.1582   -0.5012 O   0  0  0  0  0  0  0  0  0  0  0  0
    2.2684    2.3263    3.1918 C   0  0  0  0  0  0  0  0  0  0  0  0
    1.2836    1.8712    2.6304 O   0  0  0  0  0  0  0  0  0  0  0  0
    3.1460    3.3569    2.5132 C   0  0  0  0  0  0  0  0  0  0  0  0
    2.8853    3.7635    1.3924 O   0  0  0  0  0  0  0  0  0  0  0  0
    4.3803    3.8556    3.2303 C   0  0  0  0  0  0  0  0  0  0  0  0
    4.8753    4.9432    2.9932 O   0  0  0  0  0  0  0  0  0  0  0  0
  1  2  1  0  0  0  0
  2  3  2  0  0  0  0
  3  4  1  0  0  0  0
  3 51  1  0  0  0  0
  4  5  1  0  0  0  0
  5  6  1  6  0  0  0
  5 47  1  0  0  0  0
  6  7  1  0  0  0  0
  7  8  2  0  0  0  0
  7 12  1  0  0  0  0
  8  9  1  0  0  0  0
  8 25  1  0  0  0  0
  9 10  1  0  0  0  0
 10 11  2  0  0  0  0
 10 21  1  0  0  0  0
 11 12  1  0  0  0  0
 11 13  1  0  0  0  0
 13 14  1  0  0  0  0
 13 19  1  0  0  0  0
 14 15  1  0  0  0  0
 15 16  2  0  0  0  0
 15 17  1  0  0  0  0
 17 18  1  0  0  0  0
 18 19  1  0  0  0  0
 19 20  2  0  0  0  0
 20 21  1  0  0  0  0
 20 22  1  0  0  0  0
 22 23  1  0  0  0  0
 22 24  1  0  0  0  0
 23 24  1  0  0  0  0
 25 26  2  0  0  0  0
 25 30  1  0  0  0  0
 26 27  1  0  0  0  0
 27 28  2  0  0  0  0
 28 29  1  0  0  0  0
 29 30  2  0  0  0  0
 29 40  1  0  0  0  0
 30 31  1  0  0  0  0
 31 32  2  0  0  0  0
 32 33  1  0  0  0  0
 32 39  1  0  0  0  0
 33 34  2  0  0  0  0
 33 35  1  0  0  0  0
 35 36  2  0  0  0  0
 37 35  1  1  0  0  0
 37 38  1  0  0  0  0
 37 42  1  0  0  0  0
 38 39  1  0  0  0  0
 39 40  2  0  0  0  0
 40 41  1  0  0  0  0
 42 43  1  1  0  0  0
 42 44  1  0  0  0  0
 42 45  1  0  0  0  0
 44 45  1  0  0  0  0
 45 46  2  0  0  0  0
 47 48  2  0  0  0  0
 47 49  1  0  0  0  0
 49 50  2  0  0  0  0
 49 51  1  0  0  0  0
 51 52  2  0  0  0  0
M  END
$$$$