
 OpenBabel11222001293D

 54 62  0  0  1  0  0  0  0  0999 V2000
    4.2565    0.7019   -1.3034 O   0  0  0  0  0  0  0  0  0  0  0  0
    2.9867    1.1321   -1.5918 C   0  0  0  0  0  0  0  0  0  0  0  0
    2.1137    0.4044   -2.3022 C   0  0  0  0  0  0  0  0  0  0  0  0
    2.4753   -0.8274   -2.8368 O   0  0  0  0  0  0  0  0  0  0  0  0
    1.4275   -1.7962   -2.8449 C   0  0  2  0  0  0  0  0  0  0  0  0
    1.9298   -3.1117   -3.1837 O   0  0  0  0  0  0  0  0  0  0  0  0
    2.1546   -3.4267   -4.5158 C   0  0  0  0  0  0  0  0  0  0  0  0
    2.0571   -4.7007   -4.9596 C   0  0  0  0  0  0  0  0  0  0  0  0
    2.2035   -5.0428   -6.3129 O   0  0  0  0  0  0  0  0  0  0  0  0
    2.5214   -4.0469   -7.2495 C   0  0  0  0  0  0  0  0  0  0  0  0
    2.7446   -2.7800   -6.8623 C   0  0  0  0  0  0  0  0  0  0  0  0
    2.5637   -2.3202   -5.4555 C   0  0  0  0  0  0  0  0  0  0  0  0
    3.1554   -1.6985   -7.8158 C   0  0  3  0  0  0  0  0  0  0  0  0
    4.4698   -1.3249   -7.4463 O   0  0  0  0  0  0  0  0  0  0  0  0
    5.1393   -0.4415   -8.2312 C   0  0  0  0  0  0  0  0  0  0  0  0
    6.1688    0.0873   -7.8467 O   0  0  0  0  0  0  0  0  0  0  0  0
    4.6146   -0.2152   -9.4587 O   0  0  0  0  0  0  0  0  0  0  0  0
    3.6405   -1.0500  -10.0758 C   0  0  3  0  0  0  0  0  0  0  0  0
    3.2262   -2.1836   -9.2076 C   0  0  0  0  0  0  0  0  0  0  0  0
    2.9537   -3.4615   -9.5538 C   0  0  0  0  0  0  0  0  0  0  0  0
    2.6177   -4.3987   -8.5789 O   0  3  0  0  0  0  0  0  0  0  0  0
    3.0036   -3.9819  -10.9410 C   0  0  0  0  0  0  0  0  0  0  0  0
    3.9051   -5.0438  -11.2828 O   0  0  0  0  0  0  0  0  0  0  0  0
    2.4879   -5.2927  -11.2385 O   0  0  0  0  0  0  0  0  0  0  0  0
    2.4615   -0.3032  -10.2945 O   0  0  0  0  0  0  0  0  0  0  0  0
    1.8784   -5.8617   -4.0448 C   0  0  0  0  0  0  0  0  0  0  0  0
    3.0344   -6.4597   -3.5377 C   0  0  0  0  0  0  0  0  0  0  0  0
    2.9622   -7.5216   -2.7260 N   0  3  0  0  0  0  0  0  0  0  0  0
    4.0997   -8.0974   -2.2897 F   0  0  0  0  0  0  0  0  0  0  0  0
    1.8147   -8.0442   -2.3460 N   0  0  0  0  0  0  0  0  0  0  0  0
    0.6676   -7.5142   -2.7786 C   0  0  0  0  0  0  0  0  0  0  0  0
    0.6349   -6.4070   -3.6522 C   0  0  0  0  0  0  0  0  0  0  0  0
   -0.6279   -5.9321   -4.0888 C   0  0  0  0  0  0  0  0  0  0  0  0
   -1.8203   -6.5640   -3.6947 C   0  0  0  0  0  0  0  0  0  0  0  0
   -3.1248   -6.1955   -4.2668 C   0  0  0  0  0  0  0  0  0  0  0  0
   -3.3485   -5.2824   -5.1542 N   0  0  0  0  0  0  0  0  0  0  0  0
   -4.3109   -6.9908   -3.7935 C   0  0  0  0  0  0  0  0  0  0  0  0
   -5.3905   -7.0322   -4.5057 N   0  0  0  0  0  0  0  0  0  0  0  0
   -4.1550   -7.6500   -2.4484 C   0  0  1  0  0  0  0  0  0  0  0  0
   -2.8727   -8.2900   -2.3194 O   0  0  0  0  0  0  0  0  0  0  0  0
   -1.7790   -7.6222   -2.7940 C   0  0  0  0  0  0  0  0  0  0  0  0
   -0.5344   -8.0808   -2.3585 C   0  0  0  0  0  0  0  0  0  0  0  0
   -0.4851   -9.1180   -1.5059 F   0  0  0  0  0  0  0  0  0  0  0  0
   -4.4052   -6.6997   -1.3038 C   0  0  1  0  0  0  0  0  0  0  0  0
   -4.2701   -7.2439    0.0278 O   0  0  0  0  0  0  0  0  0  0  0  0
   -3.7300   -5.3108   -1.4720 O   0  0  0  0  0  0  0  0  0  0  0  0
   -5.0210   -5.4598   -1.4276 C   0  0  0  0  0  0  0  0  0  0  0  0
   -6.0817   -4.7650   -1.4529 N   0  0  0  0  0  0  0  0  0  0  0  0
    0.2367   -1.2955   -3.6628 C   0  0  0  0  0  0  0  0  0  0  0  0
   -0.2884   -1.8805   -4.6026 O   0  0  0  0  0  0  0  0  0  0  0  0
   -0.2255    0.0576   -3.2134 C   0  0  0  0  0  0  0  0  0  0  0  0
   -1.3948    0.3576   -3.3828 O   0  0  0  0  0  0  0  0  0  0  0  0
    0.7452    0.9764   -2.4992 C   0  0  0  0  0  0  0  0  0  0  0  0
    0.3970    2.0728   -2.0982 O   0  0  0  0  0  0  0  0  0  0  0  0
  1  2  1  0  0  0  0
  2  3  2  0  0  0  0
  3  4  1  0  0  0  0
  3 53  1  0  0  0  0
  4  5  1  0  0  0  0
  5  6  1  6  0  0  0
  5 49  1  0  0  0  0
  6  7  1  0  0  0  0
  7  8  2  0  0  0  0
  7 12  1  0  0  0  0
  8  9  1  0  0  0  0
  8 26  1  0  0  0  0
  9 10  1  0  0  0  0
 10 11  2  0  0  0  0
 10 21  1  0  0  0  0
 11 12  1  0  0  0  0
 11 13  1  0  0  0  0
 13 14  1  0  0  0  0
 13 19  1  0  0  0  0
 14 15  1  0  0  0  0
 15 16  2  0  0  0  0
 15 17  1  0  0  0  0
 17 18  1  0  0  0  0
 18 19  1  0  0  0  0
 18 25  1  0  0  0  0
 19 20  2  0  0  0  0
 20 21  1  0  0  0  0
 20 22  1  0  0  0  0
 22 23  1  0  0  0  0
 22 24  1  0  0  0  0
 23 24  1  0  0  0  0
 26 27  2  0  0  0  0
 26 32  1  0  0  0  0
 27 28  1  0  0  0  0
 28 29  1  0  0  0  0
 28 30  2  0  0  0  0
 30 31  1  0  0  0  0
 31 32  2  0  0  0  0
 31 42  1  0  0  0  0
 32 33  1  0  0  0  0
 33 34  2  0  0  0  0
 34 35  1  0  0  0  0
 34 41  1  0  0  0  0
 35 36  2  0  0  0  0
 35 37  1  0  0  0  0
 37 38  2  0  0  0  0
 39 37  1  6  0  0  0
 39 40  1  0  0  0  0
 39 44  1  0  0  0  0
 40 41  1  0  0  0  0
 41 42  2  0  0  0  0
 42 43  1  0  0  0  0
 44 45  1  1  0  0  0
 44 46  1  0  0  0  0
 44 47  1  0  0  0  0
 46 47  1  0  0  0  0
 47 48  2  0  0  0  0
 49 50  2  0  0  0  0
 49 51  1  0  0  0  0
 51 52  2  0  0  0  0
 51 53  1  0  0  0  0
 53 54  2  0  0  0  0
M  CHG  2  21   1  28   1
M  END
$$$$