
 OpenBabel11232000573D

 54 63  0  0  1  0  0  0  0  0999 V2000
  -14.4764   -2.2351   -5.0990 O   0  0  0  0  0  0  0  0  0  0  0  0
  -14.9160   -2.9066   -3.9872 C   0  0  0  0  0  0  0  0  0  0  0  0
  -14.0862   -3.5845   -3.1846 C   0  0  0  0  0  0  0  0  0  0  0  0
  -12.7408   -3.6789   -3.4900 O   0  0  0  0  0  0  0  0  0  0  0  0
  -11.8582   -3.7025   -2.3858 C   0  0  2  0  0  0  0  0  0  0  0  0
  -10.4723   -3.8804   -2.7966 O   0  0  0  0  0  0  0  0  0  0  0  0
  -10.0939   -5.0436   -3.4636 C   0  0  0  0  0  0  0  0  0  0  0  0
   -8.8321   -5.5143   -3.3638 C   0  0  0  0  0  0  0  0  0  0  0  0
   -8.3861   -6.6517   -4.0430 O   0  0  0  0  0  0  0  0  0  0  0  0
   -9.2816   -7.3984   -4.8127 C   0  0  0  0  0  0  0  0  0  0  0  0
  -10.5645   -7.0179   -4.9543 C   0  0  0  0  0  0  0  0  0  0  0  0
  -11.0966   -5.7545   -4.3412 C   0  0  0  0  0  0  0  0  0  0  0  0
  -11.5588   -7.8494   -5.7222 C   0  0  3  0  0  0  0  0  0  0  0  0
  -12.1546   -7.0406   -6.7200 O   0  0  0  0  0  0  0  0  0  0  0  0
  -13.1713   -7.6454   -7.4002 C   0  0  0  0  0  0  0  0  0  0  0  0
  -14.0586   -7.0119   -7.9424 O   0  0  0  0  0  0  0  0  0  0  0  0
  -13.1406   -9.0044   -7.3488 O   0  0  0  0  0  0  0  0  0  0  0  0
  -11.8610   -9.6159   -7.3950 C   0  0  3  0  0  0  0  0  0  0  0  0
  -10.9090   -8.9765   -6.4351 C   0  0  0  0  0  0  0  0  0  0  0  0
   -9.5988   -9.2776   -6.2833 C   0  0  0  0  0  0  0  0  0  0  0  0
   -8.8052   -8.5419   -5.4161 O   0  3  0  0  0  0  0  0  0  0  0  0
   -8.8924  -10.3332   -7.0490 C   0  0  0  0  0  0  0  0  0  0  0  0
   -8.1876  -10.0073   -8.2541 O   0  0  0  0  0  0  0  0  0  0  0  0
   -7.4519  -10.3633   -7.0688 O   0  0  0  0  0  0  0  0  0  0  0  0
  -12.0063  -11.0113   -7.0354 N   0  0  0  0  0  0  0  0  0  0  0  0
   -7.8072   -4.9054   -2.4854 C   0  0  0  0  0  0  0  0  0  0  0  0
   -7.8426   -5.2189   -1.1272 C   0  0  0  0  0  0  0  0  0  0  0  0
   -6.8908   -4.7709   -0.3009 N   0  3  0  0  0  0  0  0  0  0  0  0
   -6.9274   -5.1284    0.9976 F   0  0  0  0  0  0  0  0  0  0  0  0
   -5.8862   -4.0193   -0.7155 N   0  0  0  0  0  0  0  0  0  0  0  0
   -5.8045   -3.6610   -2.0016 C   0  0  0  0  0  0  0  0  0  0  0  0
   -6.7631   -4.0743   -2.9483 C   0  0  0  0  0  0  0  0  0  0  0  0
   -6.6128   -3.6452   -4.2900 C   0  0  0  0  0  0  0  0  0  0  0  0
   -5.5074   -2.8725   -4.6797 C   0  0  0  0  0  0  0  0  0  0  0  0
   -4.5568   -2.4854   -3.7600 C   0  0  0  0  0  0  0  0  0  0  0  0
   -4.7304   -2.8714   -2.4307 C   0  0  0  0  0  0  0  0  0  0  0  0
   -3.8134   -2.4945   -1.5260 F   0  0  0  0  0  0  0  0  0  0  0  0
   -3.4957   -1.6856   -4.0794 O   0  0  0  0  0  0  0  0  0  0  0  0
   -3.0119   -1.7185   -5.4514 C   0  0  1  0  0  0  0  0  0  0  0  0
   -3.8905   -2.2538   -6.5114 C   0  0  0  0  0  0  0  0  0  0  0  0
   -3.4895   -2.6444   -7.5960 O   0  0  0  0  0  0  0  0  0  0  0  0
   -5.3126   -2.4997   -6.0782 C   0  0  0  0  0  0  0  0  0  0  0  0
   -6.2463   -2.5218   -6.8614 O   0  0  0  0  0  0  0  0  0  0  0  0
   -2.2066   -0.6333   -5.8352 O   0  0  0  0  0  0  0  0  0  0  0  0
   -1.5371   -1.9236   -5.6747 C   0  0  1  0  0  0  0  0  0  0  0  0
   -0.9522   -2.2419   -4.3641 O   0  0  0  0  0  0  0  0  0  0  0  0
   -0.1901   -1.6356   -5.2511 C   0  0  0  0  0  0  0  0  0  0  0  0
    0.8959   -1.9220   -5.6999 O   0  0  0  0  0  0  0  0  0  0  0  0
  -12.1856   -4.7314   -1.3148 C   0  0  0  0  0  0  0  0  0  0  0  0
  -11.3440   -5.4035   -0.7240 O   0  0  0  0  0  0  0  0  0  0  0  0
  -13.6612   -4.8933   -1.0610 C   0  0  0  0  0  0  0  0  0  0  0  0
  -14.0163   -5.5466   -0.0926 O   0  0  0  0  0  0  0  0  0  0  0  0
  -14.6741   -4.2910   -2.0120 C   0  0  0  0  0  0  0  0  0  0  0  0
  -15.8713   -4.4148   -1.8207 O   0  0  0  0  0  0  0  0  0  0  0  0
  1  2  1  0  0  0  0
  2  3  2  0  0  0  0
  3  4  1  0  0  0  0
  3 53  1  0  0  0  0
  4  5  1  0  0  0  0
  5  6  1  6  0  0  0
  5 49  1  0  0  0  0
  6  7  1  0  0  0  0
  7  8  2  0  0  0  0
  7 12  1  0  0  0  0
  8  9  1  0  0  0  0
  8 26  1  0  0  0  0
  9 10  1  0  0  0  0
 10 11  2  0  0  0  0
 10 21  1  0  0  0  0
 11 12  1  0  0  0  0
 11 13  1  0  0  0  0
 13 14  1  0  0  0  0
 13 19  1  0  0  0  0
 14 15  1  0  0  0  0
 15 16  2  0  0  0  0
 15 17  1  0  0  0  0
 17 18  1  0  0  0  0
 18 19  1  0  0  0  0
 18 25  1  0  0  0  0
 19 20  2  0  0  0  0
 20 21  1  0  0  0  0
 20 22  1  0  0  0  0
 22 23  1  0  0  0  0
 22 24  1  0  0  0  0
 23 24  1  0  0  0  0
 26 27  2  0  0  0  0
 26 32  1  0  0  0  0
 27 28  1  0  0  0  0
 28 29  1  0  0  0  0
 28 30  2  0  0  0  0
 30 31  1  0  0  0  0
 31 32  2  0  0  0  0
 31 36  1  0  0  0  0
 32 33  1  0  0  0  0
 33 34  2  0  0  0  0
 34 35  1  0  0  0  0
 34 42  1  0  0  0  0
 35 36  2  0  0  0  0
 35 38  1  0  0  0  0
 36 37  1  0  0  0  0
 39 38  1  1  0  0  0
 39 40  1  0  0  0  0
 39 44  1  0  0  0  0
 39 45  1  0  0  0  0
 40 41  2  0  0  0  0
 40 42  1  0  0  0  0
 42 43  2  0  0  0  0
 45 44  1  1  0  0  0
 45 46  1  0  0  0  0
 45 47  1  0  0  0  0
 46 47  1  0  0  0  0
 47 48  2  0  0  0  0
 49 50  2  0  0  0  0
 49 51  1  0  0  0  0
 51 52  2  0  0  0  0
 51 53  1  0  0  0  0
 53 54  2  0  0  0  0
M  CHG  2  21   1  28   1
M  END
$$$$