
 OpenBabel11242000353D

 53 62  0  0  1  0  0  0  0  0999 V2000
   11.0669   11.7321    9.1107 O   0  0  0  0  0  0  0  0  0  0  0  0
   10.2413   12.8102    8.9281 C   0  0  0  0  0  0  0  0  0  0  0  0
    9.2185   12.8489    8.0667 C   0  0  0  0  0  0  0  0  0  0  0  0
    8.9206   11.7568    7.2622 O   0  0  0  0  0  0  0  0  0  0  0  0
    7.5138   11.5358    7.1492 C   0  0  2  0  0  0  0  0  0  0  0  0
    7.2312   10.2522    6.5669 O   0  0  0  0  0  0  0  0  0  0  0  0
    7.3307   10.0887    5.1925 C   0  0  0  0  0  0  0  0  0  0  0  0
    6.5833    9.1567    4.5672 C   0  0  0  0  0  0  0  0  0  0  0  0
    6.6164    8.9314    3.2003 O   0  0  0  0  0  0  0  0  0  0  0  0
    7.5275    9.6140    2.4233 C   0  0  0  0  0  0  0  0  0  0  0  0
    8.3826   10.5088    2.9451 C   0  0  0  0  0  0  0  0  0  0  0  0
    8.3706   10.8629    4.4053 C   0  0  0  0  0  0  0  0  0  0  0  0
    9.3557   11.2280    2.0427 C   0  0  3  0  0  0  0  0  0  0  0  0
   10.7028   10.9093    2.4864 N   0  0  0  0  0  0  0  0  0  0  0  0
   11.7438   11.3501    1.7381 C   0  0  0  0  0  0  0  0  0  0  0  0
   12.8813   11.6391    2.2564 N   0  0  0  0  0  0  0  0  0  0  0  0
   11.5571   11.3805    0.4032 N   0  0  0  0  0  0  0  0  0  0  0  0
   10.2787   11.5619   -0.2351 C   0  0  0  0  0  0  0  0  0  0  0  0
    9.2599   10.8446    0.5889 C   0  0  0  0  0  0  0  0  0  0  0  0
    8.3644    9.9312    0.1520 C   0  0  0  0  0  0  0  0  0  0  0  0
    7.5294    9.3289    1.0847 N   0  0  0  0  0  0  0  0  0  0  0  0
    8.2089    9.5107   -1.2514 C   0  0  3  0  0  0  0  0  0  0  0  0
    7.3185   10.2428   -2.0802 N   0  0  0  0  0  0  0  0  0  0  0  0
    6.9160    9.1250   -1.7108 N   0  0  0  0  0  0  0  0  0  0  0  0
    5.7374    8.1636    5.2599 C   0  0  0  0  0  0  0  0  0  0  0  0
    4.4245    8.5406    5.5354 C   0  0  0  0  0  0  0  0  0  0  0  0
    3.4811    7.7371    6.0231 N   0  3  0  0  0  0  0  0  0  0  0  0
    3.6884    6.1681    6.4903 P   0  0  0  0  0  0  0  0  0  0  0  0
    5.3793    5.7843    5.8774 C   0  0  0  0  0  0  0  0  0  0  0  0
    6.2264    6.8374    5.4416 C   0  0  0  0  0  0  0  0  0  0  0  0
    7.5701    6.5074    5.1537 C   0  0  0  0  0  0  0  0  0  0  0  0
    8.0417    5.1959    5.2055 C   0  0  0  0  0  0  0  0  0  0  0  0
    7.1706    4.1599    5.5123 C   0  0  0  0  0  0  0  0  0  0  0  0
    5.8325    4.4325    5.8567 C   0  0  0  0  0  0  0  0  0  0  0  0
    5.0392    3.3732    6.3386 N   0  0  0  0  0  0  0  0  0  0  0  0
    7.5620    2.8355    5.4449 O   0  0  0  0  0  0  0  0  0  0  0  0
    8.6714    2.6310    4.5328 C   0  0  1  0  0  0  0  0  0  0  0  0
    9.8554    3.4489    4.8144 C   0  0  0  0  0  0  0  0  0  0  0  0
   10.9953    3.0416    4.9223 O   0  0  0  0  0  0  0  0  0  0  0  0
    9.4551    4.9095    4.8879 C   0  0  0  0  0  0  0  0  0  0  0  0
   10.2464    5.8038    4.6387 O   0  0  0  0  0  0  0  0  0  0  0  0
    8.8610    1.3403    4.0170 O   0  0  0  0  0  0  0  0  0  0  0  0
    8.4002    2.3641    3.0821 C   0  0  1  0  0  0  0  0  0  0  0  0
    6.9428    2.5090    2.8920 O   0  0  0  0  0  0  0  0  0  0  0  0
    7.5991    1.6993    2.0934 C   0  0  0  0  0  0  0  0  0  0  0  0
    7.6461    1.6604    0.8769 O   0  0  0  0  0  0  0  0  0  0  0  0
    2.2428    8.2481    6.1793 F   0  0  0  0  0  0  0  0  0  0  0  0
    6.7535   12.7158    6.5356 C   0  0  0  0  0  0  0  0  0  0  0  0
    5.7500   12.6181    5.8424 O   0  0  0  0  0  0  0  0  0  0  0  0
    7.3453   14.0527    6.9148 C   0  0  0  0  0  0  0  0  0  0  0  0
    6.9996   15.0678    6.3357 O   0  0  0  0  0  0  0  0  0  0  0  0
    8.3924   14.0898    8.0060 C   0  0  0  0  0  0  0  0  0  0  0  0
    8.4664   15.0183    8.7894 O   0  0  0  0  0  0  0  0  0  0  0  0
  1  2  1  0  0  0  0
  2  3  2  0  0  0  0
  3  4  1  0  0  0  0
  3 52  1  0  0  0  0
  4  5  1  0  0  0  0
  5  6  1  6  0  0  0
  5 48  1  0  0  0  0
  6  7  1  0  0  0  0
  7  8  2  0  0  0  0
  7 12  1  0  0  0  0
  8  9  1  0  0  0  0
  8 25  1  0  0  0  0
  9 10  1  0  0  0  0
 10 11  2  0  0  0  0
 10 21  1  0  0  0  0
 11 12  1  0  0  0  0
 11 13  1  0  0  0  0
 13 14  1  0  0  0  0
 13 19  1  0  0  0  0
 14 15  1  0  0  0  0
 15 16  2  0  0  0  0
 15 17  1  0  0  0  0
 17 18  1  0  0  0  0
 18 19  1  0  0  0  0
 19 20  2  0  0  0  0
 20 21  1  0  0  0  0
 20 22  1  0  0  0  0
 22 23  1  0  0  0  0
 22 24  1  0  0  0  0
 23 24  2  0  0  0  0
 25 26  2  0  0  0  0
 25 30  1  0  0  0  0
 26 27  1  0  0  0  0
 27 28  2  0  0  0  0
 27 47  1  0  0  0  0
 28 29  1  0  0  0  0
 29 30  2  0  0  0  0
 29 34  1  0  0  0  0
 30 31  1  0  0  0  0
 31 32  2  0  0  0  0
 32 33  1  0  0  0  0
 32 40  1  0  0  0  0
 33 34  2  0  0  0  0
 33 36  1  0  0  0  0
 34 35  1  0  0  0  0
 37 36  1  1  0  0  0
 37 38  1  0  0  0  0
 37 42  1  0  0  0  0
 37 43  1  0  0  0  0
 38 39  2  0  0  0  0
 38 40  1  0  0  0  0
 40 41  2  0  0  0  0
 43 42  1  1  0  0  0
 43 44  1  0  0  0  0
 43 45  1  0  0  0  0
 44 45  1  0  0  0  0
 45 46  2  0  0  0  0
 48 49  2  0  0  0  0
 48 50  1  0  0  0  0
 50 51  2  0  0  0  0
 50 52  1  0  0  0  0
 52 53  2  0  0  0  0
M  CHG  1  27   1
M  END
$$$$