
 OpenBabel11252003113D

 54 63  0  0  1  0  0  0  0  0999 V2000
   -4.5063  -16.4849    8.8900 O   0  0  0  0  0  0  0  0  0  0  0  0
   -5.1328  -15.9573    9.9920 C   0  0  0  0  0  0  0  0  0  0  0  0
   -5.4845  -14.6699   10.0709 C   0  0  0  0  0  0  0  0  0  0  0  0
   -5.2124  -13.8042    9.0262 O   0  0  0  0  0  0  0  0  0  0  0  0
   -6.1604  -12.7529    8.9036 C   0  0  2  0  0  0  0  0  0  0  0  0
   -5.8667  -11.9899    7.7143 O   0  0  0  0  0  0  0  0  0  0  0  0
   -6.0850  -12.6073    6.4861 C   0  0  0  0  0  0  0  0  0  0  0  0
   -5.4405  -12.2006    5.3646 C   0  0  0  0  0  0  0  0  0  0  0  0
   -5.7236  -12.7777    4.1129 O   0  0  0  0  0  0  0  0  0  0  0  0
   -6.5812  -13.8794    4.0106 C   0  0  0  0  0  0  0  0  0  0  0  0
   -7.2540  -14.3379    5.0812 C   0  0  0  0  0  0  0  0  0  0  0  0
   -7.1166  -13.7110    6.4294 C   0  0  0  0  0  0  0  0  0  0  0  0
   -8.1588  -15.5407    5.0113 C   0  0  3  0  0  0  0  0  0  0  0  0
   -9.4469  -15.1546    5.4297 O   0  0  0  0  0  0  0  0  0  0  0  0
  -10.3764  -16.1527    5.4493 C   0  0  0  0  0  0  0  0  0  0  0  0
  -11.3239  -16.1031    6.2155 O   0  0  0  0  0  0  0  0  0  0  0  0
  -10.1881  -17.1744    4.5739 O   0  0  0  0  0  0  0  0  0  0  0  0
   -9.2967  -17.1021    3.5698 C   0  0  0  0  0  0  0  0  0  0  0  0
   -9.2484  -17.9179    2.6617 O   0  0  0  0  0  0  0  0  0  0  0  0
   -8.2990  -16.0342    3.6365 C   0  0  0  0  0  0  0  0  0  0  0  0
   -7.5948  -15.5543    2.5866 C   0  0  0  0  0  0  0  0  0  0  0  0
   -6.7077  -14.4932    2.7820 O   0  3  0  0  0  0  0  0  0  0  0  0
   -7.7099  -16.0176    1.1859 C   0  0  3  0  0  0  0  0  0  0  0  0
   -6.8654  -15.3506    0.2405 N   0  0  0  0  0  0  0  0  0  0  0  0
   -8.0684  -15.0420    0.2210 N   0  0  0  0  0  0  0  0  0  0  0  0
   -4.3839  -11.1224    5.3411 C   0  0  0  0  0  0  0  0  0  0  0  0
   -4.5346   -9.9918    6.1530 C   0  0  0  0  0  0  0  0  0  0  0  0
   -3.6027   -9.0317    6.1916 N   0  3  0  0  0  0  0  0  0  0  0  0
   -3.7832   -7.9716    7.0042 F   0  0  0  0  0  0  0  0  0  0  0  0
   -2.5070   -9.0754    5.4634 N   0  0  0  0  0  0  0  0  0  0  0  0
   -2.2869  -10.1087    4.6526 C   0  0  0  0  0  0  0  0  0  0  0  0
   -3.2038  -11.1765    4.5404 C   0  0  0  0  0  0  0  0  0  0  0  0
   -2.8523  -12.2265    3.6551 C   0  0  0  0  0  0  0  0  0  0  0  0
   -1.6472  -12.2205    2.9304 C   0  0  0  0  0  0  0  0  0  0  0  0
   -0.7510  -11.1855    3.0616 C   0  0  0  0  0  0  0  0  0  0  0  0
   -1.0983  -10.1352    3.9112 C   0  0  0  0  0  0  0  0  0  0  0  0
   -0.2468   -9.1047    4.0373 F   0  0  0  0  0  0  0  0  0  0  0  0
    0.4631  -11.1329    2.4364 O   0  0  0  0  0  0  0  0  0  0  0  0
    0.8325  -12.2143    1.5395 C   0  0  1  0  0  0  0  0  0  0  0  0
    0.1142  -13.4967    1.6471 C   0  0  0  0  0  0  0  0  0  0  0  0
    0.6219  -14.5925    1.4858 O   0  0  0  0  0  0  0  0  0  0  0  0
   -1.3267  -13.3478    2.0585 C   0  0  0  0  0  0  0  0  0  0  0  0
   -2.2009  -14.1400    1.7431 O   0  0  0  0  0  0  0  0  0  0  0  0
    1.1932  -11.8372    0.2361 O   0  0  0  0  0  0  0  0  0  0  0  0
    2.2669  -12.3225    1.1065 C   0  0  1  0  0  0  0  0  0  0  0  0
    3.0359  -11.3145    1.8717 O   0  0  0  0  0  0  0  0  0  0  0  0
    3.4714  -11.6656    0.6807 C   0  0  0  0  0  0  0  0  0  0  0  0
    4.5397  -12.0704    0.2856 O   0  0  0  0  0  0  0  0  0  0  0  0
   -6.1132  -11.8582   10.1284 C   0  0  0  0  0  0  0  0  0  0  0  0
   -6.0783  -10.6372   10.0941 O   0  0  0  0  0  0  0  0  0  0  0  0
   -6.1550  -12.6583   11.4177 C   0  0  0  0  0  0  0  0  0  0  0  0
   -6.1746  -12.0985   12.4968 O   0  0  0  0  0  0  0  0  0  0  0  0
   -6.1397  -14.1761   11.3158 C   0  0  0  0  0  0  0  0  0  0  0  0
   -6.6779  -14.8954   12.1353 O   0  0  0  0  0  0  0  0  0  0  0  0
  1  2  1  0  0  0  0
  2  3  2  0  0  0  0
  3  4  1  0  0  0  0
  3 53  1  0  0  0  0
  4  5  1  0  0  0  0
  5  6  1  6  0  0  0
  5 49  1  0  0  0  0
  6  7  1  0  0  0  0
  7  8  2  0  0  0  0
  7 12  1  0  0  0  0
  8  9  1  0  0  0  0
  8 26  1  0  0  0  0
  9 10  1  0  0  0  0
 10 11  2  0  0  0  0
 10 22  1  0  0  0  0
 11 12  1  0  0  0  0
 11 13  1  0  0  0  0
 13 14  1  0  0  0  0
 13 20  1  0  0  0  0
 14 15  1  0  0  0  0
 15 16  2  0  0  0  0
 15 17  1  0  0  0  0
 17 18  1  0  0  0  0
 18 19  2  0  0  0  0
 18 20  1  0  0  0  0
 20 21  2  0  0  0  0
 21 22  1  0  0  0  0
 21 23  1  0  0  0  0
 23 24  1  0  0  0  0
 23 25  1  0  0  0  0
 24 25  2  0  0  0  0
 26 27  2  0  0  0  0
 26 32  1  0  0  0  0
 27 28  1  0  0  0  0
 28 29  1  0  0  0  0
 28 30  2  0  0  0  0
 30 31  1  0  0  0  0
 31 32  2  0  0  0  0
 31 36  1  0  0  0  0
 32 33  1  0  0  0  0
 33 34  2  0  0  0  0
 34 35  1  0  0  0  0
 34 42  1  0  0  0  0
 35 36  2  0  0  0  0
 35 38  1  0  0  0  0
 36 37  1  0  0  0  0
 39 38  1  1  0  0  0
 39 40  1  0  0  0  0
 39 44  1  0  0  0  0
 39 45  1  0  0  0  0
 40 41  2  0  0  0  0
 40 42  1  0  0  0  0
 42 43  2  0  0  0  0
 45 44  1  6  0  0  0
 45 46  1  0  0  0  0
 45 47  1  0  0  0  0
 46 47  1  0  0  0  0
 47 48  2  0  0  0  0
 49 50  2  0  0  0  0
 49 51  1  0  0  0  0
 51 52  2  0  0  0  0
 51 53  1  0  0  0  0
 53 54  2  0  0  0  0
M  CHG  2  22   1  28   1
M  END
$$$$