
 OpenBabel11262000573D

 54 62  0  0  1  0  0  0  0  0999 V2000
   -1.8768    2.5349   -2.1072 O   0  0  0  0  0  0  0  0  0  0  0  0
   -1.2409    1.8047   -1.1321 C   0  0  0  0  0  0  0  0  0  0  0  0
    0.0463    1.9990   -0.8146 C   0  0  0  0  0  0  0  0  0  0  0  0
    0.7836    2.9518   -1.4998 O   0  0  0  0  0  0  0  0  0  0  0  0
    2.1401    3.1739   -1.1239 C   0  0  2  0  0  0  0  0  0  0  0  0
    2.9144    3.6930   -2.2458 O   0  0  0  0  0  0  0  0  0  0  0  0
    2.6585    4.9572   -2.7723 C   0  0  0  0  0  0  0  0  0  0  0  0
    3.4089    5.4664   -3.7826 C   0  0  0  0  0  0  0  0  0  0  0  0
    3.1843    6.7608   -4.2830 O   0  0  0  0  0  0  0  0  0  0  0  0
    2.3637    7.6542   -3.5935 C   0  0  0  0  0  0  0  0  0  0  0  0
    1.5721    7.2194   -2.5995 C   0  0  0  0  0  0  0  0  0  0  0  0
    1.5581    5.7863   -2.1633 C   0  0  0  0  0  0  0  0  0  0  0  0
    0.6911    8.1450   -1.8110 C   0  0  3  0  0  0  0  0  0  0  0  0
    1.0982    8.0677   -0.4530 O   0  0  0  0  0  0  0  0  0  0  0  0
    0.3513    8.7953    0.4223 C   0  0  0  0  0  0  0  0  0  0  0  0
    0.3399    8.5532    1.6155 O   0  0  0  0  0  0  0  0  0  0  0  0
   -0.4004    9.7640   -0.1550 O   0  0  0  0  0  0  0  0  0  0  0  0
    0.1323   10.4540   -1.2778 C   0  0  3  0  0  0  0  0  0  0  0  0
    0.8969    9.5577   -2.1915 C   0  0  0  0  0  0  0  0  0  0  0  0
    1.7270    9.9386   -3.1881 C   0  0  0  0  0  0  0  0  0  0  0  0
    2.4118    8.9911   -3.9401 O   0  3  0  0  0  0  0  0  0  0  0  0
    2.0129   11.3539   -3.5117 C   0  0  0  0  0  0  0  0  0  0  0  0
    3.1085   12.0321   -2.8824 O   0  0  0  0  0  0  0  0  0  0  0  0
    3.1749   11.7014   -4.2830 O   0  0  0  0  0  0  0  0  0  0  0  0
   -0.9473   10.9244   -2.0586 O   0  0  0  0  0  0  0  0  0  0  0  0
    4.5292    4.7217   -4.4543 C   0  0  0  0  0  0  0  0  0  0  0  0
    4.4419    3.3303   -4.5627 C   0  0  0  0  0  0  0  0  0  0  0  0
    5.4071    2.6104   -5.1379 N   0  3  0  0  0  0  0  0  0  0  0  0
    5.2819    1.2702   -5.1868 F   0  0  0  0  0  0  0  0  0  0  0  0
    6.4737    3.1594   -5.6746 N   0  0  0  0  0  0  0  0  0  0  0  0
    6.6090    4.4852   -5.6677 C   0  0  0  0  0  0  0  0  0  0  0  0
    5.6692    5.3366   -5.0472 C   0  0  0  0  0  0  0  0  0  0  0  0
    5.9347    6.7325   -5.0917 C   0  0  0  0  0  0  0  0  0  0  0  0
    7.0004    7.2591   -5.8324 C   0  0  0  0  0  0  0  0  0  0  0  0
    7.1260    8.7074   -6.0179 C   0  0  0  0  0  0  0  0  0  0  0  0
    6.4189    9.4676   -5.3716 O   0  0  0  0  0  0  0  0  0  0  0  0
    8.0718    9.1711   -7.1105 C   0  0  0  0  0  0  0  0  0  0  0  0
    8.3620   10.3526   -7.2094 O   0  0  0  0  0  0  0  0  0  0  0  0
    8.5189    8.0741   -8.0580 C   0  0  1  0  0  0  0  0  0  0  0  0
    8.8261    6.8499   -7.3594 O   0  0  0  0  0  0  0  0  0  0  0  0
    7.8697    6.4148   -6.4876 C   0  0  0  0  0  0  0  0  0  0  0  0
    7.6992    5.0396   -6.3390 C   0  0  0  0  0  0  0  0  0  0  0  0
    8.5563    4.2162   -6.9623 F   0  0  0  0  0  0  0  0  0  0  0  0
    7.5614    7.8877   -9.2205 C   0  0  1  0  0  0  0  0  0  0  0  0
    7.3457    9.0431  -10.0504 O   0  0  0  0  0  0  0  0  0  0  0  0
    7.6902    6.6412   -9.9318 O   0  0  0  0  0  0  0  0  0  0  0  0
    6.5320    6.8701   -9.3157 C   0  0  0  0  0  0  0  0  0  0  0  0
    5.8897    6.2513   -8.4825 O   0  0  0  0  0  0  0  0  0  0  0  0
    2.8324    1.9072   -0.6179 C   0  0  3  0  0  0  0  0  0  0  0  0
    2.0883    1.3594    0.5795 C   0  0  3  0  0  0  0  0  0  0  0  0
    0.6403    1.1176    0.2467 C   0  0  0  0  0  0  0  0  0  0  0  0
   -0.0455    0.3017    0.8587 O   0  0  0  0  0  0  0  0  0  0  0  0
    2.7337    0.2413    1.0171 F   0  0  0  0  0  0  0  0  0  0  0  0
    2.8688    0.9854   -1.6263 F   0  0  0  0  0  0  0  0  0  0  0  0
  1  2  1  0  0  0  0
  2  3  2  0  0  0  0
  3  4  1  0  0  0  0
  3 51  1  0  0  0  0
  4  5  1  0  0  0  0
  5  6  1  6  0  0  0
  5 49  1  0  0  0  0
  6  7  1  0  0  0  0
  7  8  2  0  0  0  0
  7 12  1  0  0  0  0
  8  9  1  0  0  0  0
  8 26  1  0  0  0  0
  9 10  1  0  0  0  0
 10 11  2  0  0  0  0
 10 21  1  0  0  0  0
 11 12  1  0  0  0  0
 11 13  1  0  0  0  0
 13 14  1  0  0  0  0
 13 19  1  0  0  0  0
 14 15  1  0  0  0  0
 15 16  2  0  0  0  0
 15 17  1  0  0  0  0
 17 18  1  0  0  0  0
 18 19  1  0  0  0  0
 18 25  1  0  0  0  0
 19 20  2  0  0  0  0
 20 21  1  0  0  0  0
 20 22  1  0  0  0  0
 22 23  1  0  0  0  0
 22 24  1  0  0  0  0
 23 24  1  0  0  0  0
 26 27  2  0  0  0  0
 26 32  1  0  0  0  0
 27 28  1  0  0  0  0
 28 29  1  0  0  0  0
 28 30  2  0  0  0  0
 30 31  1  0  0  0  0
 31 32  2  0  0  0  0
 31 42  1  0  0  0  0
 32 33  1  0  0  0  0
 33 34  2  0  0  0  0
 34 35  1  0  0  0  0
 34 41  1  0  0  0  0
 35 36  2  0  0  0  0
 35 37  1  0  0  0  0
 37 38  2  0  0  0  0
 39 37  1  1  0  0  0
 39 40  1  0  0  0  0
 39 44  1  0  0  0  0
 40 41  1  0  0  0  0
 41 42  2  0  0  0  0
 42 43  1  0  0  0  0
 44 45  1  6  0  0  0
 44 46  1  0  0  0  0
 44 47  1  0  0  0  0
 46 47  1  0  0  0  0
 47 48  2  0  0  0  0
 49 50  1  0  0  0  0
 49 54  1  0  0  0  0
 50 51  1  0  0  0  0
 50 53  1  0  0  0  0
 51 52  2  0  0  0  0
M  CHG  2  21   1  28   1
M  END
$$$$