
 OpenBabel11262000113D

 54 62  0  0  1  0  0  0  0  0999 V2000
    4.2813    3.2147   -1.0123 O   0  0  0  0  0  0  0  0  0  0  0  0
    2.9590    2.9607   -0.7491 C   0  0  0  0  0  0  0  0  0  0  0  0
    2.1982    2.2147   -1.5581 C   0  0  0  0  0  0  0  0  0  0  0  0
    2.7364    1.7042   -2.7249 O   0  0  0  0  0  0  0  0  0  0  0  0
    2.1595    0.5245   -3.2314 C   0  0  2  0  0  0  0  0  0  0  0  0
    2.6933    0.1878   -4.5552 O   0  0  0  0  0  0  0  0  0  0  0  0
    2.5447    1.0901   -5.6087 C   0  0  0  0  0  0  0  0  0  0  0  0
    2.4685    0.6379   -6.8776 C   0  0  0  0  0  0  0  0  0  0  0  0
    2.3615    1.4878   -7.9905 O   0  0  0  0  0  0  0  0  0  0  0  0
    2.3794    2.8897   -7.8035 C   0  0  0  0  0  0  0  0  0  0  0  0
    2.4574    3.4163   -6.5633 C   0  0  0  0  0  0  0  0  0  0  0  0
    2.5082    2.5711   -5.3238 C   0  0  0  0  0  0  0  0  0  0  0  0
    2.4947    4.9118   -6.3184 C   0  0  3  0  0  0  0  0  0  0  0  0
    3.6960    5.2123   -5.6330 O   0  0  0  0  0  0  0  0  0  0  0  0
    3.9733    6.5256   -5.4617 C   0  0  0  0  0  0  0  0  0  0  0  0
    4.8402    6.8752   -4.5930 N   0  0  0  0  0  0  0  0  0  0  0  0
    3.3343    7.4403   -6.2205 O   0  0  0  0  0  0  0  0  0  0  0  0
    2.6811    7.0918   -7.3421 C   0  0  0  0  0  0  0  0  0  0  0  0
    2.1828    7.8902   -8.1204 O   0  0  0  0  0  0  0  0  0  0  0  0
    2.5236    5.6583   -7.5810 C   0  0  0  0  0  0  0  0  0  0  0  0
    2.4279    5.0950   -8.8026 C   0  0  0  0  0  0  0  0  0  0  0  0
    2.3169    3.7122   -8.9198 O   0  3  0  0  0  0  0  0  0  0  0  0
    2.5141    5.8305  -10.0904 C   0  0  0  0  0  0  0  0  0  0  0  0
    3.7737    5.9726  -10.7591 O   0  0  0  0  0  0  0  0  0  0  0  0
    2.7703    5.0974  -11.3055 O   0  0  0  0  0  0  0  0  0  0  0  0
    2.4952   -0.8278   -7.1514 C   0  0  0  0  0  0  0  0  0  0  0  0
    3.7312   -1.4548   -7.3609 C   0  0  0  0  0  0  0  0  0  0  0  0
    3.7896   -2.7818   -7.5103 N   0  3  0  0  0  0  0  0  0  0  0  0
    4.9838   -3.3748   -7.7195 F   0  0  0  0  0  0  0  0  0  0  0  0
    2.7134   -3.5398   -7.4535 N   0  0  0  0  0  0  0  0  0  0  0  0
    1.5131   -2.9690   -7.2382 C   0  0  0  0  0  0  0  0  0  0  0  0
    1.3580   -1.5972   -7.0931 N   0  3  0  0  0  0  0  0  0  0  0  0
    0.1086   -1.0848   -6.8923 C   0  0  0  0  0  0  0  0  0  0  0  0
   -1.0131   -1.9033   -6.8086 C   0  0  0  0  0  0  0  0  0  0  0  0
   -2.3224   -1.3092   -6.5739 C   0  0  0  0  0  0  0  0  0  0  0  0
   -2.4226   -0.0970   -6.5256 O   0  0  0  0  0  0  0  0  0  0  0  0
   -3.4822   -2.2742   -6.5006 C   0  0  0  0  0  0  0  0  0  0  0  0
   -4.5710   -1.9405   -6.9336 O   0  0  0  0  0  0  0  0  0  0  0  0
   -3.0901   -3.6554   -6.0179 C   0  0  1  0  0  0  0  0  0  0  0  0
   -1.9234   -4.1405   -6.7377 O   0  0  0  0  0  0  0  0  0  0  0  0
   -0.8903   -3.2678   -6.9183 C   0  0  0  0  0  0  0  0  0  0  0  0
    0.3770   -3.7824   -7.1572 C   0  0  0  0  0  0  0  0  0  0  0  0
    0.5323   -5.1083   -7.2775 F   0  0  0  0  0  0  0  0  0  0  0  0
   -2.9274   -3.7158   -4.5165 C   0  0  1  0  0  0  0  0  0  0  0  0
   -4.0908   -3.3831   -3.7462 O   0  0  0  0  0  0  0  0  0  0  0  0
   -2.1441   -4.8040   -4.0148 O   0  0  0  0  0  0  0  0  0  0  0  0
   -1.6480   -3.5697   -3.8197 C   0  0  0  0  0  0  0  0  0  0  0  0
   -0.5912   -3.0773   -4.1641 O   0  0  0  0  0  0  0  0  0  0  0  0
    0.6451    0.5172   -3.2997 C   0  0  0  0  0  0  0  0  0  0  0  0
    0.0099    0.1103   -4.2670 O   0  0  0  0  0  0  0  0  0  0  0  0
   -0.0088    1.0800   -2.0706 C   0  0  0  0  0  0  0  0  0  0  0  0
   -1.1494    0.7343   -1.8162 O   0  0  0  0  0  0  0  0  0  0  0  0
    0.7615    2.0421   -1.1905 C   0  0  0  0  0  0  0  0  0  0  0  0
    0.2141    2.6460   -0.2866 O   0  0  0  0  0  0  0  0  0  0  0  0
  1  2  1  0  0  0  0
  2  3  2  0  0  0  0
  3  4  1  0  0  0  0
  3 53  1  0  0  0  0
  4  5  1  0  0  0  0
  5  6  1  6  0  0  0
  5 49  1  0  0  0  0
  6  7  1  0  0  0  0
  7  8  2  0  0  0  0
  7 12  1  0  0  0  0
  8  9  1  0  0  0  0
  8 26  1  0  0  0  0
  9 10  1  0  0  0  0
 10 11  2  0  0  0  0
 10 22  1  0  0  0  0
 11 12  1  0  0  0  0
 11 13  1  0  0  0  0
 13 14  1  0  0  0  0
 13 20  1  0  0  0  0
 14 15  1  0  0  0  0
 15 16  2  0  0  0  0
 15 17  1  0  0  0  0
 17 18  1  0  0  0  0
 18 19  2  0  0  0  0
 18 20  1  0  0  0  0
 20 21  2  0  0  0  0
 21 22  1  0  0  0  0
 21 23  1  0  0  0  0
 23 24  1  0  0  0  0
 23 25  1  0  0  0  0
 24 25  1  0  0  0  0
 26 27  2  0  0  0  0
 26 32  1  0  0  0  0
 27 28  1  0  0  0  0
 28 29  1  0  0  0  0
 28 30  2  0  0  0  0
 30 31  1  0  0  0  0
 31 32  2  0  0  0  0
 31 42  1  0  0  0  0
 32 33  1  0  0  0  0
 33 34  2  0  0  0  0
 34 35  1  0  0  0  0
 34 41  1  0  0  0  0
 35 36  2  0  0  0  0
 35 37  1  0  0  0  0
 37 38  2  0  0  0  0
 39 37  1  6  0  0  0
 39 40  1  0  0  0  0
 39 44  1  0  0  0  0
 40 41  1  0  0  0  0
 41 42  2  0  0  0  0
 42 43  1  0  0  0  0
 44 45  1  1  0  0  0
 44 46  1  0  0  0  0
 44 47  1  0  0  0  0
 46 47  1  0  0  0  0
 47 48  2  0  0  0  0
 49 50  2  0  0  0  0
 49 51  1  0  0  0  0
 51 52  2  0  0  0  0
 51 53  1  0  0  0  0
 53 54  2  0  0  0  0
M  CHG  3  22   1  28   1  32   1
M  END
$$$$