
 OpenBabel11232003313D

 54 62  0  0  1  0  0  0  0  0999 V2000
    3.3765    1.2364    5.8062 O   0  0  0  0  0  0  0  0  0  0  0  0
    4.4535    0.4185    5.5946 C   0  0  0  0  0  0  0  0  0  0  0  0
    4.3415   -0.7971    5.0481 C   0  0  0  0  0  0  0  0  0  0  0  0
    3.1025   -1.3373    4.7185 O   0  0  0  0  0  0  0  0  0  0  0  0
    3.0414   -2.0971    3.5142 C   0  0  2  0  0  0  0  0  0  0  0  0
    1.9181   -3.0370    3.4674 O   0  0  0  0  0  0  0  0  0  0  0  0
    1.7870   -4.0470    4.4156 C   0  0  0  0  0  0  0  0  0  0  0  0
    1.1708   -5.2324    4.1493 C   0  0  0  0  0  0  0  0  0  0  0  0
    1.0298   -6.2015    5.1555 O   0  0  0  0  0  0  0  0  0  0  0  0
    1.8133   -6.1407    6.2927 C   0  0  0  0  0  0  0  0  0  0  0  0
    2.4090   -5.0010    6.6534 C   0  0  0  0  0  0  0  0  0  0  0  0
    2.2958   -3.7751    5.8173 C   0  0  0  0  0  0  0  0  0  0  0  0
    3.3031   -4.9556    7.8508 C   0  0  3  0  0  0  0  0  0  0  0  0
    3.0245   -3.8074    8.6347 O   0  0  0  0  0  0  0  0  0  0  0  0
    3.9565   -3.5968    9.6106 C   0  0  0  0  0  0  0  0  0  0  0  0
    4.2085   -2.4967   10.0641 O   0  0  0  0  0  0  0  0  0  0  0  0
    4.5820   -4.7460   10.0177 O   0  0  0  0  0  0  0  0  0  0  0  0
    3.6972   -5.8428   10.0900 C   0  0  3  0  0  0  0  0  0  0  0  0
    3.1370   -6.1560    8.7420 C   0  0  0  0  0  0  0  0  0  0  0  0
    2.5311   -7.2952    8.3149 C   0  0  0  0  0  0  0  0  0  0  0  0
    1.9539   -7.2979    7.0450 N   0  0  0  0  0  0  0  0  0  0  0  0
    2.4019   -8.5106    9.1299 C   0  0  0  0  0  0  0  0  0  0  0  0
    3.6035   -9.3844    9.2626 N   0  3  0  0  0  0  0  0  0  0  0  0
    2.8464   -9.8143    8.5833 N   0  3  0  0  0  0  0  0  0  0  0  0
    4.3988   -7.0205   10.4945 O   0  0  0  0  0  0  0  0  0  0  0  0
    0.5571   -5.6684    2.8437 C   0  0  0  0  0  0  0  0  0  0  0  0
   -0.0041   -4.7150    1.9965 C   0  0  0  0  0  0  0  0  0  0  0  0
   -0.5904   -5.0644    0.8459 N   0  3  0  0  0  0  0  0  0  0  0  0
   -1.1276   -4.1042    0.0682 F   0  0  0  0  0  0  0  0  0  0  0  0
   -0.6826   -6.3155    0.4420 N   0  0  0  0  0  0  0  0  0  0  0  0
   -0.1830   -7.2972    1.1933 C   0  0  0  0  0  0  0  0  0  0  0  0
    0.4474   -7.0349    2.4283 C   0  0  0  0  0  0  0  0  0  0  0  0
    0.9230   -8.1630    3.1516 C   0  0  0  0  0  0  0  0  0  0  0  0
    0.7687   -9.4744    2.6933 C   0  0  0  0  0  0  0  0  0  0  0  0
    1.2473  -10.5961    3.5111 C   0  0  0  0  0  0  0  0  0  0  0  0
    1.6861  -10.4315    4.6449 O   0  0  0  0  0  0  0  0  0  0  0  0
    1.0963  -11.9601    2.8792 C   0  0  0  0  0  0  0  0  0  0  0  0
    0.9187  -12.9296    3.6004 O   0  0  0  0  0  0  0  0  0  0  0  0
    1.1141  -11.9350    1.3638 C   0  0  1  0  0  0  0  0  0  0  0  0
    0.1728  -10.9519    0.8685 O   0  0  0  0  0  0  0  0  0  0  0  0
    0.2034   -9.7156    1.4573 C   0  0  0  0  0  0  0  0  0  0  0  0
   -0.2829   -8.6208    0.7366 C   0  0  0  0  0  0  0  0  0  0  0  0
   -0.8402   -8.8423   -0.4647 F   0  0  0  0  0  0  0  0  0  0  0  0
    2.5124  -11.7686    0.8052 C   0  0  1  0  0  0  0  0  0  0  0  0
    3.4704  -12.7769    1.1724 O   0  0  0  0  0  0  0  0  0  0  0  0
    2.5856  -11.3355   -0.5623 O   0  0  0  0  0  0  0  0  0  0  0  0
    3.0732  -10.4883    0.3561 C   0  0  0  0  0  0  0  0  0  0  0  0
    2.8175   -9.3475    0.6407 O   0  0  0  0  0  0  0  0  0  0  0  0
    4.3014   -2.8272    3.0606 C   0  0  0  0  0  0  0  0  0  0  0  0
    4.4496   -3.3980    1.9921 O   0  0  0  0  0  0  0  0  0  0  0  0
    5.3451   -2.8685    4.1330 C   0  0  0  0  0  0  0  0  0  0  0  0
    5.7778   -3.9437    4.5194 O   0  0  0  0  0  0  0  0  0  0  0  0
    5.5913   -1.5933    4.8910 C   0  0  0  0  0  0  0  0  0  0  0  0
    6.6881   -1.3095    5.3308 O   0  0  0  0  0  0  0  0  0  0  0  0
  1  2  1  0  0  0  0
  2  3  2  0  0  0  0
  3  4  1  0  0  0  0
  3 53  1  0  0  0  0
  4  5  1  0  0  0  0
  5  6  1  1  0  0  0
  5 49  1  0  0  0  0
  6  7  1  0  0  0  0
  7  8  2  0  0  0  0
  7 12  1  0  0  0  0
  8  9  1  0  0  0  0
  8 26  1  0  0  0  0
  9 10  1  0  0  0  0
 10 11  2  0  0  0  0
 10 21  1  0  0  0  0
 11 12  1  0  0  0  0
 11 13  1  0  0  0  0
 13 14  1  0  0  0  0
 13 19  1  0  0  0  0
 14 15  1  0  0  0  0
 15 16  2  0  0  0  0
 15 17  1  0  0  0  0
 17 18  1  0  0  0  0
 18 19  1  0  0  0  0
 18 25  1  0  0  0  0
 19 20  2  0  0  0  0
 20 21  1  0  0  0  0
 20 22  1  0  0  0  0
 22 23  1  0  0  0  0
 22 24  1  0  0  0  0
 23 24  3  0  0  0  0
 26 27  2  0  0  0  0
 26 32  1  0  0  0  0
 27 28  1  0  0  0  0
 28 29  1  0  0  0  0
 28 30  2  0  0  0  0
 30 31  1  0  0  0  0
 31 32  2  0  0  0  0
 31 42  1  0  0  0  0
 32 33  1  0  0  0  0
 33 34  2  0  0  0  0
 34 35  1  0  0  0  0
 34 41  1  0  0  0  0
 35 36  2  0  0  0  0
 35 37  1  0  0  0  0
 37 38  2  0  0  0  0
 39 37  1  1  0  0  0
 39 40  1  0  0  0  0
 39 44  1  0  0  0  0
 40 41  1  0  0  0  0
 41 42  2  0  0  0  0
 42 43  1  0  0  0  0
 44 45  1  1  0  0  0
 44 46  1  0  0  0  0
 44 47  1  0  0  0  0
 46 47  1  0  0  0  0
 47 48  2  0  0  0  0
 49 50  2  0  0  0  0
 49 51  1  0  0  0  0
 51 52  2  0  0  0  0
 51 53  1  0  0  0  0
 53 54  2  0  0  0  0
M  CHG  3  23   1  24   1  28   1
M  END
$$$$