
 OpenBabel10252014153D

 94109  0  0  1  0  0  0  0  0999 V2000
    4.1209   -5.0611   -0.8764 F   0  0  0  0  0  0  0  0  0  0  0  0
    5.3251   -4.5620   -0.4571 C   0  0  3  0  0  0  0  0  0  0  0  0
    6.1423   -5.7826    0.0046 C   0  0  0  0  0  0  0  0  0  0  0  0
    7.1632   -6.2158   -1.0691 C   0  0  3  0  0  0  0  0  0  0  0  0
    7.8029   -7.5541   -0.7185 C   0  0  0  0  0  0  0  0  0  0  0  0
    9.1476   -7.3753   -0.0310 C   0  0  0  0  0  0  0  0  0  0  0  0
   10.0954   -6.5001   -0.8677 C   0  0  3  0  0  0  0  0  0  0  0  0
    9.5348   -5.1114   -1.1298 C   0  0  0  0  0  0  0  0  0  0  0  0
    8.1148   -5.0326   -1.2665 C   0  0  0  0  0  0  0  0  0  0  0  0
    7.4649   -3.7971   -1.4744 C   0  0  0  0  0  0  0  0  0  0  0  0
    5.9629   -3.8238   -1.6534 C   0  0  3  0  0  0  0  0  0  0  0  0
    5.2502   -2.5102   -2.0878 C   0  0  3  0  0  0  0  0  0  0  0  0
    6.2606   -1.4089   -2.4897 C   0  0  0  0  0  0  0  0  0  0  0  0
    7.4549   -1.3114   -1.5427 C   0  0  0  0  0  0  0  0  0  0  0  0
    8.1926   -2.6227   -1.4846 C   0  0  0  0  0  0  0  0  0  0  0  0
    9.5931   -2.6929   -1.3543 C   0  0  0  0  0  0  0  0  0  0  0  0
   10.3287   -3.9123   -1.1963 C   0  0  0  0  0  0  0  0  0  0  0  0
   11.8521   -3.8041   -1.0931 C   0  0  0  0  0  0  0  0  0  0  0  0
   12.4796   -2.6493   -0.5593 C   0  0  0  0  0  0  0  0  0  0  0  0
   13.8911   -2.4342   -0.5699 C   0  0  0  0  0  0  0  0  0  0  0  0
   14.4423   -1.0749   -0.1534 C   0  0  3  0  0  0  0  0  0  0  0  0
   14.1938   -0.0551   -1.2839 C   0  0  0  0  0  0  0  0  0  0  0  0
   14.7448    1.3262   -0.9487 C   0  0  0  0  0  0  0  0  0  0  0  0
   16.2373    1.2878   -0.5919 C   0  0  3  0  0  0  0  0  0  0  0  0
   16.4812    0.2910    0.5660 C   0  0  3  0  0  0  0  0  0  0  0  0
   15.9368   -1.1286    0.2483 C   0  0  3  0  0  0  0  0  0  0  0  0
   16.7457   -1.8905   -0.8182 C   0  0  0  0  0  0  0  0  0  0  0  0
   16.2573   -3.3409   -0.9610 C   0  0  3  0  0  0  0  0  0  0  0  0
   14.7453   -3.4430   -1.0268 C   0  0  0  0  0  0  0  0  0  0  0  0
   14.1615   -4.6033   -1.5206 C   0  0  0  0  0  0  0  0  0  0  0  0
   12.7694   -4.7496   -1.5784 C   0  0  0  0  0  0  0  0  0  0  0  0
   12.3712   -5.8711   -2.1739 F   0  0  0  0  0  0  0  0  0  0  0  0
   16.7967   -4.2192    0.1788 C   0  0  0  0  0  0  0  0  0  0  0  0
   17.9497    0.2454    1.0045 C   0  0  0  0  0  0  0  0  0  0  0  0
   16.7135    2.7058   -0.2571 C   0  0  0  0  0  0  0  0  0  0  0  0
    4.2184   -2.6934   -3.2834 C   0  0  3  0  0  0  0  0  0  0  0  0
    4.8809   -3.2161   -4.4752 O   0  0  0  0  0  0  0  0  0  0  0  0
    4.9133   -4.5619   -4.6623 C   0  0  0  0  0  0  0  0  0  0  0  0
    3.9478   -5.3860   -4.1150 C   0  0  0  0  0  0  0  0  0  0  0  0
    2.7345   -4.8145   -3.4549 C   0  0  3  0  0  0  0  0  0  0  0  0
    2.9072   -3.4093   -2.8549 C   0  0  3  0  0  0  0  0  0  0  0  0
    1.7291   -2.6411   -3.1950 O   0  0  0  0  0  0  0  0  0  0  0  0
    1.3135   -1.6636   -2.3246 C   0  0  0  0  0  0  0  0  0  0  0  0
    1.5657   -1.6138   -0.9502 C   0  0  0  0  0  0  0  0  0  0  0  0
    1.1316   -0.5223   -0.1875 C   0  0  0  0  0  0  0  0  0  0  0  0
    0.4182    0.5132   -0.7852 C   0  0  0  0  0  0  0  0  0  0  0  0
    0.1238    0.4417   -2.1429 C   0  0  0  0  0  0  0  0  0  0  0  0
    0.5555   -0.6443   -2.9084 C   0  0  0  0  0  0  0  0  0  0  0  0
   -0.8368    1.8467   -2.9648 Br  0  0  0  0  0  0  0  0  0  0  0  0
    1.7277   -4.8952   -4.4734 O   0  0  0  0  0  0  0  0  0  0  0  0
    4.0530   -6.7756   -4.2897 C   0  0  0  0  0  0  0  0  0  0  0  0
    5.0753   -7.4175   -5.0147 C   0  0  0  0  0  0  0  0  0  0  0  0
    6.0571   -6.5709   -5.6144 C   0  0  0  0  0  0  0  0  0  0  0  0
    5.9327   -5.1543   -5.4127 C   0  0  0  0  0  0  0  0  0  0  0  0
    6.8534   -4.3391   -5.9724 F   0  0  0  0  0  0  0  0  0  0  0  0
    7.0438   -7.2355   -6.3710 C   0  0  0  0  0  0  0  0  0  0  0  0
    8.2445   -6.3886   -7.2985 Cl  0  0  0  0  0  0  0  0  0  0  0  0
    7.1102   -8.6509   -6.4961 C   0  0  0  0  0  0  0  0  0  0  0  0
    6.1770   -9.5268   -5.9062 C   0  0  0  0  0  0  0  0  0  0  0  0
    5.1414   -8.8506   -5.2013 C   0  0  0  0  0  0  0  0  0  0  0  0
    3.7687   -9.7900   -4.6429 Cl  0  0  0  0  0  0  0  0  0  0  0  0
    6.3075  -11.0468   -6.1127 C   0  0  0  0  0  0  0  0  0  0  0  0
    6.8303  -11.5703   -7.3377 C   0  0  0  0  0  0  0  0  0  0  0  0
    6.9247  -12.9924   -7.7083 C   0  0  0  0  0  0  0  0  0  0  0  0
    7.3633  -13.7509   -8.9827 C   0  0  0  0  0  0  0  0  0  0  0  0
    7.2572  -15.1539   -9.0406 C   0  0  0  0  0  0  0  0  0  0  0  0
    7.3417  -15.8700  -10.2699 N   0  0  0  0  0  0  0  0  0  0  0  0
    6.8649  -15.7914   -7.8812 C   0  0  0  0  0  0  0  0  0  0  0  0
    6.5442  -15.1545   -6.7548 N   0  0  0  0  0  0  0  0  0  0  0  0
    6.5207  -13.8244   -6.6389 N   0  3  0  0  0  0  0  0  0  0  0  0
    6.1019  -13.3390   -5.4254 N   0  3  0  0  0  0  0  0  0  0  0  0
    5.9867  -12.0182   -5.1455 C   0  0  0  0  0  0  0  0  0  0  0  0
    5.7242  -11.6739   -3.8511 O   0  0  0  0  0  0  0  0  0  0  0  0
    5.6699  -14.4583   -4.1801 Cl  0  0  0  0  0  0  0  0  0  0  0  0
    7.8896  -13.1491  -10.3604 N   0  3  0  0  0  0  0  0  0  0  0  0
    8.8257  -13.8475  -11.1658 N   0  3  0  0  0  0  0  0  0  0  0  0
   10.0649  -14.8300  -10.4496 Cl  0  0  0  0  0  0  0  0  0  0  0  0
    8.9711  -13.6040  -12.5214 C   0  0  0  0  0  0  0  0  0  0  0  0
    8.3984  -12.4872  -13.1856 C   0  0  0  0  0  0  0  0  0  0  0  0
    7.6799  -11.6346  -12.3534 C   0  0  0  0  0  0  0  0  0  0  0  0
    7.3494  -12.0178  -10.9543 C   0  0  0  0  0  0  0  0  0  0  0  0
    6.4121  -11.2532  -10.2442 N   0  0  0  0  0  0  0  0  0  0  0  0
    7.2965  -10.4727  -12.8940 N   0  0  0  0  0  0  0  0  0  0  0  0
    7.5684  -10.0447  -14.1543 N   0  3  0  0  0  0  0  0  0  0  0  0
    8.1478  -10.8766  -15.0882 C   0  0  0  0  0  0  0  0  0  0  0  0
    8.5136  -12.1458  -14.5740 N   0  3  0  0  0  0  0  0  0  0  0  0
    8.9272  -13.1079  -15.4653 N   0  0  0  0  0  0  0  0  0  0  0  0
    8.9866  -12.8686  -16.8019 N   0  3  0  0  0  0  0  0  0  0  0  0
    9.2804  -13.9909  -17.7660 C   0  0  0  0  0  0  0  0  0  0  0  0
    8.7732  -11.6301  -17.2694 C   0  0  0  0  0  0  0  0  0  0  0  0
    8.3811  -10.6441  -16.4302 N   0  3  0  0  0  0  0  0  0  0  0  0
    8.2332   -9.1096  -17.1850 Cl  0  0  0  0  0  0  0  0  0  0  0  0
    7.0345   -8.4457  -14.4537 Cl  0  0  0  0  0  0  0  0  0  0  0  0
   10.3124   -7.3691   -2.4631 Cl  0  0  0  0  0  0  0  0  0  0  0  0
  1  2  1  0  0  0  0
  2  3  1  0  0  0  0
  2 11  1  0  0  0  0
  3  4  1  0  0  0  0
  4  5  1  0  0  0  0
  4  9  1  0  0  0  0
  5  6  1  0  0  0  0
  6  7  1  0  0  0  0
  7  8  1  0  0  0  0
  7 94  1  0  0  0  0
  8  9  2  0  0  0  0
  8 17  1  0  0  0  0
  9 10  1  0  0  0  0
 10 11  1  0  0  0  0
 10 15  2  0  0  0  0
 11 12  1  0  0  0  0
 12 13  1  0  0  0  0
 12 36  1  0  0  0  0
 13 14  1  0  0  0  0
 14 15  1  0  0  0  0
 15 16  1  0  0  0  0
 16 17  2  0  0  0  0
 17 18  1  0  0  0  0
 18 19  2  0  0  0  0
 18 31  1  0  0  0  0
 19 20  1  0  0  0  0
 20 21  1  0  0  0  0
 20 29  2  0  0  0  0
 21 22  1  0  0  0  0
 21 26  1  0  0  0  0
 22 23  1  0  0  0  0
 23 24  1  0  0  0  0
 24 25  1  0  0  0  0
 24 35  1  0  0  0  0
 25 26  1  0  0  0  0
 25 34  1  0  0  0  0
 26 27  1  0  0  0  0
 27 28  1  0  0  0  0
 28 29  1  0  0  0  0
 28 33  1  0  0  0  0
 29 30  1  0  0  0  0
 30 31  2  0  0  0  0
 31 32  1  0  0  0  0
 36 37  1  0  0  0  0
 36 41  1  0  0  0  0
 37 38  1  0  0  0  0
 38 39  2  0  0  0  0
 38 54  1  0  0  0  0
 39 40  1  0  0  0  0
 39 51  1  0  0  0  0
 40 41  1  0  0  0  0
 40 50  1  0  0  0  0
 41 42  1  0  0  0  0
 42 43  1  0  0  0  0
 43 44  2  0  0  0  0
 43 48  1  0  0  0  0
 44 45  1  0  0  0  0
 45 46  2  0  0  0  0
 46 47  1  0  0  0  0
 47 48  2  0  0  0  0
 47 49  1  0  0  0  0
 51 52  2  0  0  0  0
 52 53  1  0  0  0  0
 52 60  1  0  0  0  0
 53 54  2  0  0  0  0
 53 56  1  0  0  0  0
 54 55  1  0  0  0  0
 56 57  1  0  0  0  0
 56 58  2  0  0  0  0
 58 59  1  0  0  0  0
 59 60  2  0  0  0  0
 59 62  1  0  0  0  0
 60 61  1  0  0  0  0
 62 63  2  0  0  0  0
 62 72  1  0  0  0  0
 63 64  1  0  0  0  0
 64 65  2  0  0  0  0
 64 70  1  0  0  0  0
 65 66  1  0  0  0  0
 65 75  1  0  0  0  0
 66 67  1  0  0  0  0
 66 68  2  0  0  0  0
 68 69  1  0  0  0  0
 69 70  2  0  0  0  0
 70 71  1  0  0  0  0
 71 72  2  0  0  0  0
 71 74  1  0  0  0  0
 72 73  1  0  0  0  0
 75 76  2  0  0  0  0
 75 81  1  0  0  0  0
 76 77  1  0  0  0  0
 76 78  1  0  0  0  0
 78 79  2  0  0  0  0
 79 80  1  0  0  0  0
 79 86  1  0  0  0  0
 80 81  2  0  0  0  0
 80 83  1  0  0  0  0
 81 82  1  0  0  0  0
 83 84  2  0  0  0  0
 84 85  1  0  0  0  0
 84 93  1  0  0  0  0
 85 86  2  0  0  0  0
 85 91  1  0  0  0  0
 86 87  1  0  0  0  0
 87 88  2  0  0  0  0
 88 89  1  0  0  0  0
 88 90  1  0  0  0  0
 90 91  2  0  0  0  0
 91 92  1  0  0  0  0
M  CHG  8  70   1  71   1  75   1  76   1  84   1  86   1  88   1  91   1
M  END
$$$$