
 OpenBabel11272002283D

 54 62  0  0  1  0  0  0  0  0999 V2000
    0.6975    2.0161   -5.1048 O   0  0  0  0  0  0  0  0  0  0  0  0
    1.0578    2.1377   -3.7857 C   0  0  0  0  0  0  0  0  0  0  0  0
    1.3577    1.0947   -3.0000 C   0  0  0  0  0  0  0  0  0  0  0  0
    1.2478   -0.2043   -3.4490 O   0  0  0  0  0  0  0  0  0  0  0  0
    2.3161   -1.0575   -3.0493 C   0  0  2  0  0  0  0  0  0  0  0  0
    2.1299   -2.3763   -3.6068 O   0  0  0  0  0  0  0  0  0  0  0  0
    2.2190   -2.5468   -4.9857 C   0  0  0  0  0  0  0  0  0  0  0  0
    2.0601   -3.7639   -5.5572 C   0  0  0  0  0  0  0  0  0  0  0  0
    2.1802   -3.9820   -6.9319 O   0  0  0  0  0  0  0  0  0  0  0  0
    2.5389   -2.9295   -7.7678 C   0  0  0  0  0  0  0  0  0  0  0  0
    2.7014   -1.6806   -7.2949 C   0  0  0  0  0  0  0  0  0  0  0  0
    2.5172   -1.3503   -5.8475 C   0  0  0  0  0  0  0  0  0  0  0  0
    3.0746   -0.5277   -8.1811 C   0  0  3  0  0  0  0  0  0  0  0  0
    4.2843    0.0232   -7.7058 O   0  0  0  0  0  0  0  0  0  0  0  0
    4.7928    1.0679   -8.4139 C   0  0  0  0  0  0  0  0  0  0  0  0
    5.5687    1.8553   -7.8969 O   0  0  0  0  0  0  0  0  0  0  0  0
    4.4022    1.1735   -9.7104 O   0  0  0  0  0  0  0  0  0  0  0  0
    3.8010    0.1622  -10.3614 C   0  0  0  0  0  0  0  0  0  0  0  0
    3.5822    0.1882  -11.5634 O   0  0  0  0  0  0  0  0  0  0  0  0
    3.3420   -0.9690   -9.5569 C   0  0  0  0  0  0  0  0  0  0  0  0
    3.1740   -2.2390   -9.9915 C   0  0  0  0  0  0  0  0  0  0  0  0
    2.7265   -3.2142   -9.1005 O   0  3  0  0  0  0  0  0  0  0  0  0
    3.4406   -2.7337  -11.3698 C   0  0  0  0  0  0  0  0  0  0  0  0
    3.8102   -4.1111  -11.5752 O   0  0  0  0  0  0  0  0  0  0  0  0
    2.5209   -3.6380  -12.0036 O   0  0  0  0  0  0  0  0  0  0  0  0
    1.7614   -4.9912   -4.7800 C   0  0  0  0  0  0  0  0  0  0  0  0
    2.8612   -5.6909   -4.4282 N   0  0  0  0  0  0  0  0  0  0  0  0
    2.6662   -6.7518   -3.6215 C   0  0  0  0  0  0  0  0  0  0  0  0
    3.7475   -7.4584   -3.2645 F   0  0  0  0  0  0  0  0  0  0  0  0
    1.4311   -7.1669   -3.1555 C   0  0  0  0  0  0  0  0  0  0  0  0
    0.2708   -6.4829   -3.5557 C   0  0  0  0  0  0  0  0  0  0  0  0
    0.4424   -5.3744   -4.4272 C   0  0  0  0  0  0  0  0  0  0  0  0
   -0.7040   -4.7080   -4.8979 C   0  0  0  0  0  0  0  0  0  0  0  0
   -1.9796   -5.0684   -4.4596 C   0  0  0  0  0  0  0  0  0  0  0  0
   -3.1461   -4.3497   -4.9787 C   0  0  0  0  0  0  0  0  0  0  0  0
   -3.0322   -3.4611   -5.8094 O   0  0  0  0  0  0  0  0  0  0  0  0
   -4.4902   -4.7597   -4.4309 C   0  0  0  0  0  0  0  0  0  0  0  0
   -5.5184   -4.4868   -5.0311 O   0  0  0  0  0  0  0  0  0  0  0  0
   -4.4174   -5.4430   -3.0886 C   0  0  1  0  0  0  0  0  0  0  0  0
   -3.3736   -6.4264   -3.0035 O   0  0  0  0  0  0  0  0  0  0  0  0
   -2.1527   -6.0848   -3.5325 C   0  0  0  0  0  0  0  0  0  0  0  0
   -1.0412   -6.8491   -3.1197 C   0  0  0  0  0  0  0  0  0  0  0  0
   -1.2385   -7.8056   -2.0988 N   0  0  0  0  0  0  0  0  0  0  0  0
   -4.3093   -4.4391   -1.9742 C   0  0  1  0  0  0  0  0  0  0  0  0
   -3.2016   -3.5098   -2.0362 O   0  0  0  0  0  0  0  0  0  0  0  0
   -5.5356   -3.8297   -1.5672 O   0  0  0  0  0  0  0  0  0  0  0  0
   -4.9496   -4.6558   -0.6946 C   0  0  0  0  0  0  0  0  0  0  0  0
   -5.3831   -5.6604   -0.1460 O   0  0  0  0  0  0  0  0  0  0  0  0
    2.4374   -1.1586   -1.5342 C   0  0  0  0  0  0  0  0  0  0  0  0
    2.7806   -2.1577   -0.9192 O   0  0  0  0  0  0  0  0  0  0  0  0
    2.1913    0.1511   -0.8177 C   0  0  0  0  0  0  0  0  0  0  0  0
    2.3571    0.2285    0.3896 O   0  0  0  0  0  0  0  0  0  0  0  0
    1.7630    1.3760   -1.5973 C   0  0  0  0  0  0  0  0  0  0  0  0
    1.7847    2.4940   -1.1112 O   0  0  0  0  0  0  0  0  0  0  0  0
  1  2  1  0  0  0  0
  2  3  2  0  0  0  0
  3  4  1  0  0  0  0
  3 53  1  0  0  0  0
  4  5  1  0  0  0  0
  5  6  1  6  0  0  0
  5 49  1  0  0  0  0
  6  7  1  0  0  0  0
  7  8  2  0  0  0  0
  7 12  1  0  0  0  0
  8  9  1  0  0  0  0
  8 26  1  0  0  0  0
  9 10  1  0  0  0  0
 10 11  2  0  0  0  0
 10 22  1  0  0  0  0
 11 12  1  0  0  0  0
 11 13  1  0  0  0  0
 13 14  1  0  0  0  0
 13 20  1  0  0  0  0
 14 15  1  0  0  0  0
 15 16  2  0  0  0  0
 15 17  1  0  0  0  0
 17 18  1  0  0  0  0
 18 19  2  0  0  0  0
 18 20  1  0  0  0  0
 20 21  2  0  0  0  0
 21 22  1  0  0  0  0
 21 23  1  0  0  0  0
 23 24  1  0  0  0  0
 23 25  1  0  0  0  0
 24 25  1  0  0  0  0
 26 27  2  0  0  0  0
 26 32  1  0  0  0  0
 27 28  1  0  0  0  0
 28 29  1  0  0  0  0
 28 30  2  0  0  0  0
 30 31  1  0  0  0  0
 31 32  2  0  0  0  0
 31 42  1  0  0  0  0
 32 33  1  0  0  0  0
 33 34  2  0  0  0  0
 34 35  1  0  0  0  0
 34 41  1  0  0  0  0
 35 36  2  0  0  0  0
 35 37  1  0  0  0  0
 37 38  2  0  0  0  0
 39 37  1  6  0  0  0
 39 40  1  0  0  0  0
 39 44  1  0  0  0  0
 40 41  1  0  0  0  0
 41 42  2  0  0  0  0
 42 43  1  0  0  0  0
 44 45  1  6  0  0  0
 44 46  1  0  0  0  0
 44 47  1  0  0  0  0
 46 47  1  0  0  0  0
 47 48  2  0  0  0  0
 49 50  2  0  0  0  0
 49 51  1  0  0  0  0
 51 52  2  0  0  0  0
 51 53  1  0  0  0  0
 53 54  2  0  0  0  0
M  CHG  1  22   1
M  END
$$$$