
 OpenBabel11262002113D

 54 62  0  0  1  0  0  0  0  0999 V2000
    4.0679    4.1995    3.2326 O   0  0  0  0  0  0  0  0  0  0  0  0
    4.2160    5.3544    2.5083 C   0  0  0  0  0  0  0  0  0  0  0  0
    4.3832    5.3384    1.1827 C   0  0  0  0  0  0  0  0  0  0  0  0
    4.4781    4.1613    0.4594 O   0  0  0  0  0  0  0  0  0  0  0  0
    3.5417    4.0705   -0.6209 C   0  0  2  0  0  0  0  0  0  0  0  0
    4.1356    3.1623   -1.6557 O   0  0  0  0  0  0  0  0  0  0  0  0
    4.9257    3.5713   -2.7275 C   0  0  0  0  0  0  0  0  0  0  0  0
    5.7048    2.7229   -3.4510 C   0  0  0  0  0  0  0  0  0  0  0  0
    6.3251    3.1518   -4.6723 O   0  0  0  0  0  0  0  0  0  0  0  0
    5.9108    4.3754   -5.2825 C   0  0  0  0  0  0  0  0  0  0  0  0
    5.1837    5.2484   -4.5758 C   0  0  0  0  0  0  0  0  0  0  0  0
    4.8962    5.0092   -3.1526 C   0  0  0  0  0  0  0  0  0  0  0  0
    4.5216    6.4800   -5.1626 C   0  0  3  0  0  0  0  0  0  0  0  0
    4.9384    7.6249   -4.4610 O   0  0  0  0  0  0  0  0  0  0  0  0
    4.4010    8.8050   -4.9019 C   0  0  0  0  0  0  0  0  0  0  0  0
    4.3195    9.7673   -4.1561 O   0  0  0  0  0  0  0  0  0  0  0  0
    3.9810    8.8410   -6.1962 O   0  0  0  0  0  0  0  0  0  0  0  0
    4.2930    7.8759   -7.0798 C   0  0  0  0  0  0  0  0  0  0  0  0
    3.9918    7.9164   -8.2620 O   0  0  0  0  0  0  0  0  0  0  0  0
    4.9388    6.6780   -6.5436 C   0  0  0  0  0  0  0  0  0  0  0  0
    5.7674    5.8442   -7.2071 C   0  0  0  0  0  0  0  0  0  0  0  0
    6.2449    4.6783   -6.5935 O   0  3  0  0  0  0  0  0  0  0  0  0
    6.2177    6.0617   -8.5993 C   0  0  0  0  0  0  0  0  0  0  0  0
    6.5986    4.9269   -9.3986 O   0  0  0  0  0  0  0  0  0  0  0  0
    5.4126    5.6790   -9.7170 O   0  0  0  0  0  0  0  0  0  0  0  0
    6.0138    1.2989   -3.0529 C   0  0  0  0  0  0  0  0  0  0  0  0
    5.3978    0.2344   -3.7380 C   0  0  0  0  0  0  0  0  0  0  0  0
    5.7317   -1.0340   -3.4617 N   0  3  0  0  0  0  0  0  0  0  0  0
    5.1702   -2.0445   -4.1583 F   0  0  0  0  0  0  0  0  0  0  0  0
    6.6331   -1.3388   -2.5581 N   0  0  0  0  0  0  0  0  0  0  0  0
    7.2619   -0.3573   -1.9042 C   0  0  0  0  0  0  0  0  0  0  0  0
    6.9775    0.9907   -2.1093 N   0  3  0  0  0  0  0  0  0  0  0  0
    7.6828    1.9217   -1.4000 C   0  0  0  0  0  0  0  0  0  0  0  0
    8.7366    1.5447   -0.5636 C   0  0  0  0  0  0  0  0  0  0  0  0
    9.5284    2.5643    0.1054 C   0  0  0  0  0  0  0  0  0  0  0  0
    9.3696    3.7313   -0.2015 O   0  0  0  0  0  0  0  0  0  0  0  0
   10.6001    2.0585    1.0432 C   0  0  0  0  0  0  0  0  0  0  0  0
   10.8706    2.6690    2.0622 O   0  0  0  0  0  0  0  0  0  0  0  0
   11.2336    0.7748    0.5674 C   0  0  1  0  0  0  0  0  0  0  0  0
   10.1946   -0.2017    0.2645 O   0  0  0  0  0  0  0  0  0  0  0  0
    9.0959    0.2258   -0.4198 C   0  0  0  0  0  0  0  0  0  0  0  0
    8.2991   -0.7172   -1.0437 C   0  0  0  0  0  0  0  0  0  0  0  0
    8.5703   -2.0197   -0.8779 F   0  0  0  0  0  0  0  0  0  0  0  0
   12.1521    0.9685   -0.6169 C   0  0  1  0  0  0  0  0  0  0  0  0
   12.7750   -0.2318   -1.1295 O   0  0  0  0  0  0  0  0  0  0  0  0
   11.6141    1.8308   -1.6232 O   0  0  0  0  0  0  0  0  0  0  0  0
   12.7465    2.2263   -1.0210 C   0  0  0  0  0  0  0  0  0  0  0  0
   13.8244    2.4719   -1.5695 O   0  0  0  0  0  0  0  0  0  0  0  0
    3.0275    5.3977   -1.1363 C   0  0  0  0  0  0  0  0  0  0  0  0
    3.5313    6.5712   -0.7348 C   0  0  0  0  0  0  0  0  0  0  0  0
    4.4089    6.6258    0.4439 C   0  0  0  0  0  0  0  0  0  0  0  0
    5.0909    7.5845    0.7562 O   0  0  0  0  0  0  0  0  0  0  0  0
    3.3548    7.7036   -1.4399 F   0  0  0  0  0  0  0  0  0  0  0  0
    2.1652    5.3829   -2.1844 F   0  0  0  0  0  0  0  0  0  0  0  0
  1  2  1  0  0  0  0
  2  3  2  0  0  0  0
  3  4  1  0  0  0  0
  3 51  1  0  0  0  0
  4  5  1  0  0  0  0
  5 49  1  0  0  0  0
  5  6  1  6  0  0  0
  6  7  1  0  0  0  0
  7  8  2  0  0  0  0
  7 12  1  0  0  0  0
  8  9  1  0  0  0  0
  8 26  1  0  0  0  0
  9 10  1  0  0  0  0
 10 11  2  0  0  0  0
 10 22  1  0  0  0  0
 11 12  1  0  0  0  0
 11 13  1  0  0  0  0
 13 14  1  0  0  0  0
 13 20  1  0  0  0  0
 14 15  1  0  0  0  0
 15 16  2  0  0  0  0
 15 17  1  0  0  0  0
 17 18  1  0  0  0  0
 18 19  2  0  0  0  0
 18 20  1  0  0  0  0
 20 21  2  0  0  0  0
 21 22  1  0  0  0  0
 21 23  1  0  0  0  0
 23 24  1  0  0  0  0
 23 25  1  0  0  0  0
 24 25  1  0  0  0  0
 26 27  2  0  0  0  0
 26 32  1  0  0  0  0
 27 28  1  0  0  0  0
 28 29  1  0  0  0  0
 28 30  2  0  0  0  0
 30 31  1  0  0  0  0
 31 32  2  0  0  0  0
 31 42  1  0  0  0  0
 32 33  1  0  0  0  0
 33 34  2  0  0  0  0
 34 35  1  0  0  0  0
 34 41  1  0  0  0  0
 35 36  2  0  0  0  0
 35 37  1  0  0  0  0
 37 38  2  0  0  0  0
 39 37  1  6  0  0  0
 39 40  1  0  0  0  0
 39 44  1  0  0  0  0
 40 41  1  0  0  0  0
 41 42  2  0  0  0  0
 42 43  1  0  0  0  0
 44 45  1  6  0  0  0
 44 46  1  0  0  0  0
 44 47  1  0  0  0  0
 46 47  1  0  0  0  0
 47 48  2  0  0  0  0
 49 50  2  0  0  0  0
 49 54  1  0  0  0  0
 50 51  1  0  0  0  0
 50 53  1  0  0  0  0
 51 52  2  0  0  0  0
M  CHG  3  22   1  28   1  32   1
M  END
$$$$