
 OpenBabel09222023073D

 53 62  0  0  1  0  0  0  0  0999 V2000
    7.2752   -3.2580   -5.7145 O   0  0  0  0  0  0  0  0  0  0  0  0
    6.9625   -3.8041   -4.4974 C   0  0  0  0  0  0  0  0  0  0  0  0
    5.9252   -3.3815   -3.7670 C   0  0  0  0  0  0  0  0  0  0  0  0
    5.1306   -2.3272   -4.1829 O   0  0  0  0  0  0  0  0  0  0  0  0
    3.7385   -2.5872   -3.9943 C   0  0  2  0  0  0  0  0  0  0  0  0
    2.9329   -1.5378   -4.5403 O   0  0  0  0  0  0  0  0  0  0  0  0
    3.0971   -1.2544   -5.8904 C   0  0  0  0  0  0  0  0  0  0  0  0
    2.9577    0.0022   -6.3561 C   0  0  0  0  0  0  0  0  0  0  0  0
    3.0955    0.3602   -7.6853 O   0  0  0  0  0  0  0  0  0  0  0  0
    3.3037   -0.6256   -8.6226 C   0  0  0  0  0  0  0  0  0  0  0  0
    3.3814   -1.9659   -8.2849 C   0  0  0  0  0  0  0  0  0  0  0  0
    3.3320   -2.3858   -6.8491 C   0  0  0  0  0  0  0  0  0  0  0  0
    3.5517   -2.8726   -9.3317 C   0  0  0  0  0  0  0  0  0  0  0  0
    3.6278   -4.2506   -9.0880 N   0  0  0  0  0  0  0  0  0  0  0  0
    3.9020   -5.1901  -10.0303 C   0  0  0  0  0  0  0  0  0  0  0  0
    3.9943   -6.3778   -9.7395 O   0  0  0  0  0  0  0  0  0  0  0  0
    4.1051   -4.7527  -11.2953 N   0  0  0  0  0  0  0  0  0  0  0  0
    3.7624   -3.4313  -11.7545 C   0  0  0  0  0  0  0  0  0  0  0  0
    3.6574   -2.4260  -10.6498 C   0  0  0  0  0  0  0  0  0  0  0  0
    3.5953   -1.0510  -10.9045 C   0  0  0  0  0  0  0  0  0  0  0  0
    3.4253   -0.1678   -9.8866 N   0  0  0  0  0  0  0  0  0  0  0  0
    3.7426   -0.4974  -12.3004 C   0  0  0  0  0  0  0  0  0  0  0  0
    2.6264   -0.6411  -13.1909 O   0  0  0  0  0  0  0  0  0  0  0  0
    2.9707    0.6566  -12.6636 O   0  0  0  0  0  0  0  0  0  0  0  0
    2.6077    1.1265   -5.4718 C   0  0  0  0  0  0  0  0  0  0  0  0
    1.2698    1.3272   -5.3462 N   0  0  0  0  0  0  0  0  0  0  0  0
    0.8632    2.2849   -4.4938 C   0  0  0  0  0  0  0  0  0  0  0  0
    1.7274    3.0614   -3.7439 C   0  0  0  0  0  0  0  0  0  0  0  0
    3.1056    2.8602   -3.8748 C   0  0  0  0  0  0  0  0  0  0  0  0
    3.5807    1.8800   -4.7758 C   0  0  0  0  0  0  0  0  0  0  0  0
    4.9796    1.7227   -4.9167 C   0  0  0  0  0  0  0  0  0  0  0  0
    5.8680    2.4961   -4.1605 C   0  0  0  0  0  0  0  0  0  0  0  0
    5.3944    3.4144   -3.2325 C   0  0  0  0  0  0  0  0  0  0  0  0
    4.0182    3.6110   -3.1103 C   0  0  0  0  0  0  0  0  0  0  0  0
    6.1801    4.1717   -2.4109 O   0  0  0  0  0  0  0  0  0  0  0  0
    7.5519    3.7845   -2.2772 C   0  0  2  0  0  0  0  0  0  0  0  0
    8.1926    3.2697   -3.5378 C   0  0  0  0  0  0  0  0  0  0  0  0
    9.3494    3.4988   -3.8567 O   0  0  0  0  0  0  0  0  0  0  0  0
    7.3145    2.3562   -4.3585 C   0  0  0  0  0  0  0  0  0  0  0  0
    7.7974    1.5480   -5.1339 O   0  0  0  0  0  0  0  0  0  0  0  0
    7.7312    2.8525   -1.1425 C   0  0  2  0  0  0  0  0  0  0  0  0
    6.9886    1.5338   -1.2140 O   0  0  0  0  0  0  0  0  0  0  0  0
    7.6726    1.3395    0.1234 C   0  0  3  0  0  0  0  0  0  0  0  0
    7.0747    2.8886    0.3263 C   0  0  0  0  0  0  0  0  0  0  0  0
    6.6524    3.6508    1.1455 O   0  0  0  0  0  0  0  0  0  0  0  0
    8.9662    1.8698   -0.7935 C   0  0  0  0  0  0  0  0  0  0  0  0
   10.1415    1.7355   -0.9510 O   0  0  0  0  0  0  0  0  0  0  0  0
    3.4019   -2.7296   -2.5124 C   0  0  0  0  0  0  0  0  0  0  0  0
    2.3327   -2.4617   -1.9840 O   0  0  0  0  0  0  0  0  0  0  0  0
    4.5175   -3.3632   -1.7146 C   0  0  0  0  0  0  0  0  0  0  0  0
    4.5384   -3.3027   -0.4961 O   0  0  0  0  0  0  0  0  0  0  0  0
    5.6387   -4.0425   -2.4677 C   0  0  0  0  0  0  0  0  0  0  0  0
    6.1856   -5.0496   -2.0563 O   0  0  0  0  0  0  0  0  0  0  0  0
  1  2  1  0  0  0  0
  2  3  2  0  0  0  0
  3  4  1  0  0  0  0
  3 52  1  0  0  0  0
  4  5  1  0  0  0  0
  5  6  1  1  0  0  0
  5 48  1  0  0  0  0
  6  7  1  0  0  0  0
  7  8  2  0  0  0  0
  7 12  1  0  0  0  0
  8  9  1  0  0  0  0
  8 25  1  0  0  0  0
  9 10  1  0  0  0  0
 10 11  2  0  0  0  0
 10 21  1  0  0  0  0
 11 12  1  0  0  0  0
 11 13  1  0  0  0  0
 13 14  1  0  0  0  0
 13 19  2  0  0  0  0
 14 15  1  0  0  0  0
 15 16  2  0  0  0  0
 15 17  1  0  0  0  0
 17 18  1  0  0  0  0
 18 19  1  0  0  0  0
 19 20  1  0  0  0  0
 20 21  2  0  0  0  0
 20 22  1  0  0  0  0
 22 23  1  0  0  0  0
 22 24  1  0  0  0  0
 23 24  1  0  0  0  0
 25 26  2  0  0  0  0
 25 30  1  0  0  0  0
 26 27  1  0  0  0  0
 27 28  2  0  0  0  0
 28 29  1  0  0  0  0
 29 30  2  0  0  0  0
 29 34  1  0  0  0  0
 30 31  1  0  0  0  0
 31 32  2  0  0  0  0
 32 33  1  0  0  0  0
 32 39  1  0  0  0  0
 33 34  2  0  0  0  0
 33 35  1  0  0  0  0
 36 35  1  6  0  0  0
 36 37  1  0  0  0  0
 36 41  1  0  0  0  0
 37 38  2  0  0  0  0
 37 39  1  0  0  0  0
 39 40  2  0  0  0  0
 41 42  1  6  0  0  0
 41 44  1  0  0  0  0
 41 46  1  0  0  0  0
 42 43  1  0  0  0  0
 43 44  1  0  0  0  0
 43 46  1  0  0  0  0
 44 45  2  0  0  0  0
 46 47  2  0  0  0  0
 48 49  2  0  0  0  0
 48 50  1  0  0  0  0
 50 51  2  0  0  0  0
 50 52  1  0  0  0  0
 52 53  2  0  0  0  0
M  END
$$$$