
 OpenBabel11172022303D

 52 60  0  0  1  0  0  0  0  0999 V2000
    2.0065    8.0186    0.1170 O   0  0  0  0  0  0  0  0  0  0  0  0
    0.6745    7.7440   -0.0594 C   0  0  0  0  0  0  0  0  0  0  0  0
    0.1029    6.6397    0.4354 C   0  0  0  0  0  0  0  0  0  0  0  0
    0.8481    5.7128    1.1566 O   0  0  0  0  0  0  0  0  0  0  0  0
    0.1063    5.0961    2.2154 C   0  0  2  0  0  0  0  0  0  0  0  0
    0.9494    4.2486    3.0186 O   0  0  0  0  0  0  0  0  0  0  0  0
    1.1614    4.5718    4.3544 C   0  0  0  0  0  0  0  0  0  0  0  0
    1.4067    3.6228    5.2921 C   0  0  0  0  0  0  0  0  0  0  0  0
    1.7240    3.9364    6.6224 O   0  0  0  0  0  0  0  0  0  0  0  0
    1.6949    5.2639    7.0408 C   0  0  0  0  0  0  0  0  0  0  0  0
    1.4286    6.2652    6.1886 C   0  0  0  0  0  0  0  0  0  0  0  0
    1.2276    6.0307    4.7326 C   0  0  0  0  0  0  0  0  0  0  0  0
    1.2935    7.6880    6.6689 C   0  0  3  0  0  0  0  0  0  0  0  0
   -0.0313    8.1170    6.3449 O   0  0  0  0  0  0  0  0  0  0  0  0
   -0.6140    9.1808    6.9489 C   0  0  0  0  0  0  0  0  0  0  0  0
   -1.6900    9.6148    6.5539 O   0  0  0  0  0  0  0  0  0  0  0  0
    0.0237    9.7323    8.0084 O   0  0  0  0  0  0  0  0  0  0  0  0
    1.2780    9.2722    8.4942 C   0  0  3  0  0  0  0  0  0  0  0  0
    1.5097    7.8597    8.1264 C   0  0  0  0  0  0  0  0  0  0  0  0
    1.8370    6.8192    8.9259 C   0  0  0  0  0  0  0  0  0  0  0  0
    1.9366    5.5470    8.3669 N   0  0  0  0  0  0  0  0  0  0  0  0
    2.1104    6.9347   10.3755 C   0  0  0  0  0  0  0  0  0  0  0  0
    1.1250    7.4145   11.3045 O   0  0  0  0  0  0  0  0  0  0  0  0
    1.5344    6.0336   11.3340 O   0  0  0  0  0  0  0  0  0  0  0  0
    2.3093   10.0606    7.9213 O   0  0  0  0  0  0  0  0  0  0  0  0
    1.4441    2.1658    5.0139 C   0  0  0  0  0  0  0  0  0  0  0  0
    2.6481    1.6124    4.6051 C   0  0  0  0  0  0  0  0  0  0  0  0
    2.8087    0.2977    4.3613 N   0  0  0  0  0  0  0  0  0  0  0  0
    1.7456   -0.5476    4.5085 N   0  0  0  0  0  0  0  0  0  0  0  0
    0.5504   -0.0935    4.9068 C   0  0  0  0  0  0  0  0  0  0  0  0
    0.3494    1.2780    5.1886 C   0  0  0  0  0  0  0  0  0  0  0  0
   -0.9230    1.6706    5.6550 C   0  0  0  0  0  0  0  0  0  0  0  0
   -1.9457    0.7260    5.8333 C   0  0  0  0  0  0  0  0  0  0  0  0
   -1.7670   -0.6216    5.5098 C   0  0  0  0  0  0  0  0  0  0  0  0
   -0.5015   -1.0028    5.0582 C   0  0  0  0  0  0  0  0  0  0  0  0
   -2.7605   -1.6224    5.6478 N   0  0  0  0  0  0  0  0  0  0  0  0
   -3.9615   -1.2850    6.0227 C   0  0  0  0  0  0  0  0  0  0  0  0
   -4.3440    0.1368    6.2884 C   0  0  0  0  0  0  0  0  0  0  0  0
   -5.5157    0.4688    6.3116 O   0  0  0  0  0  0  0  0  0  0  0  0
   -3.2255    1.1407    6.4231 C   0  0  0  0  0  0  0  0  0  0  0  0
   -3.3682    2.1994    7.0095 O   0  0  0  0  0  0  0  0  0  0  0  0
   -5.0299   -2.2647    6.2132 C   0  0  1  0  0  0  0  0  0  0  0  0
   -5.8037   -2.6166    5.0417 O   0  0  0  0  0  0  0  0  0  0  0  0
   -4.7327   -3.3805    7.0508 O   0  0  0  0  0  0  0  0  0  0  0  0
   -5.6251   -2.4853    7.5294 C   0  0  0  0  0  0  0  0  0  0  0  0
   -5.5821   -1.8645    8.5561 O   0  0  0  0  0  0  0  0  0  0  0  0
   -1.0054    4.2574    1.6083 C   0  0  0  0  0  0  0  0  0  0  0  0
   -1.2957    3.1112    1.9187 O   0  0  0  0  0  0  0  0  0  0  0  0
   -1.8064    5.0199    0.5757 C   0  0  0  0  0  0  0  0  0  0  0  0
   -2.7999    4.5247    0.0678 O   0  0  0  0  0  0  0  0  0  0  0  0
   -1.3458    6.4065    0.1696 C   0  0  0  0  0  0  0  0  0  0  0  0
   -2.1089    7.2354   -0.2961 O   0  0  0  0  0  0  0  0  0  0  0  0
  1  2  1  0  0  0  0
  2  3  2  0  0  0  0
  3  4  1  0  0  0  0
  3 51  1  0  0  0  0
  4  5  1  0  0  0  0
  5  6  1  6  0  0  0
  5 47  1  0  0  0  0
  6  7  1  0  0  0  0
  7  8  2  0  0  0  0
  7 12  1  0  0  0  0
  8  9  1  0  0  0  0
  8 26  1  0  0  0  0
  9 10  1  0  0  0  0
 10 11  2  0  0  0  0
 10 21  1  0  0  0  0
 11 12  1  0  0  0  0
 11 13  1  0  0  0  0
 13 14  1  0  0  0  0
 13 19  1  0  0  0  0
 14 15  1  0  0  0  0
 15 16  2  0  0  0  0
 15 17  1  0  0  0  0
 17 18  1  0  0  0  0
 18 19  1  0  0  0  0
 18 25  1  0  0  0  0
 19 20  2  0  0  0  0
 20 21  1  0  0  0  0
 20 22  1  0  0  0  0
 22 23  1  0  0  0  0
 22 24  1  0  0  0  0
 23 24  1  0  0  0  0
 26 27  2  0  0  0  0
 26 31  1  0  0  0  0
 27 28  1  0  0  0  0
 28 29  2  0  0  0  0
 29 30  1  0  0  0  0
 30 31  2  0  0  0  0
 30 35  1  0  0  0  0
 31 32  1  0  0  0  0
 32 33  2  0  0  0  0
 33 34  1  0  0  0  0
 33 40  1  0  0  0  0
 34 35  2  0  0  0  0
 34 36  1  0  0  0  0
 36 37  2  0  0  0  0
 37 38  1  0  0  0  0
 38 39  2  0  0  0  0
 38 40  1  0  0  0  0
 40 41  2  0  0  0  0
 42 37  1  6  0  0  0
 42 43  1  0  0  0  0
 42 44  1  0  0  0  0
 42 45  1  0  0  0  0
 44 45  1  0  0  0  0
 45 46  2  0  0  0  0
 47 48  2  0  0  0  0
 47 49  1  0  0  0  0
 49 50  2  0  0  0  0
 49 51  1  0  0  0  0
 51 52  2  0  0  0  0
M  END
$$$$