
 OpenBabel09212019553D

 49 56  0  0  1  0  0  0  0  0999 V2000
    0.0882    4.8681   -2.5123 O   0  0  0  0  0  0  0  0  0  0  0  0
   -0.6621    4.7683   -3.7210 C   0  0  0  0  0  0  0  0  0  0  0  0
   -0.2434    3.5064   -4.4768 C   0  0  2  0  0  0  0  0  0  0  0  0
   -0.5063    2.3639   -3.6644 O   0  0  0  0  0  0  0  0  0  0  0  0
    0.0412    1.1497   -4.1898 C   0  0  2  0  0  0  0  0  0  0  0  0
   -0.5436   -0.0108   -3.5865 O   0  0  0  0  0  0  0  0  0  0  0  0
   -1.8949   -0.2486   -3.8370 C   0  0  0  0  0  0  0  0  0  0  0  0
   -2.4137   -1.4954   -3.8560 C   0  0  0  0  0  0  0  0  0  0  0  0
   -3.7680   -1.7731   -4.0216 O   0  0  0  0  0  0  0  0  0  0  0  0
   -4.6728   -0.7306   -4.0461 C   0  0  0  0  0  0  0  0  0  0  0  0
   -4.2629    0.5902   -4.0314 C   0  0  0  0  0  0  0  0  0  0  0  0
   -2.8120    0.9264   -3.9883 C   0  0  0  0  0  0  0  0  0  0  0  0
   -5.2510    1.5798   -4.0508 C   0  0  0  0  0  0  0  0  0  0  0  0
   -4.9011    2.9371   -4.0665 N   0  0  0  0  0  0  0  0  0  0  0  0
   -5.7827    3.9653   -3.9741 C   0  0  0  0  0  0  0  0  0  0  0  0
   -5.3980    5.1295   -3.9512 O   0  0  0  0  0  0  0  0  0  0  0  0
   -7.0941    3.6409   -3.8801 N   0  0  0  0  0  0  0  0  0  0  0  0
   -7.6173    2.3280   -4.1720 C   0  0  0  0  0  0  0  0  0  0  0  0
   -6.6000    1.2408   -4.0611 C   0  0  0  0  0  0  0  0  0  0  0  0
   -6.8965   -0.1139   -4.0777 C   0  0  0  0  0  0  0  0  0  0  0  0
   -5.9715   -1.0939   -4.0781 N   0  0  0  0  0  0  0  0  0  0  0  0
   -8.1780   -0.5754   -4.1360 O   0  0  0  0  0  0  0  0  0  0  0  0
   -1.5851   -2.7077   -3.7053 C   0  0  0  0  0  0  0  0  0  0  0  0
   -1.1221   -3.2128   -4.8802 N   0  0  0  0  0  0  0  0  0  0  0  0
   -0.3453   -4.3126   -4.8168 C   0  0  0  0  0  0  0  0  0  0  0  0
    0.0167   -4.9363   -3.6367 C   0  0  0  0  0  0  0  0  0  0  0  0
   -0.4478   -4.4130   -2.4283 C   0  0  0  0  0  0  0  0  0  0  0  0
   -1.2939   -3.2774   -2.4420 C   0  0  0  0  0  0  0  0  0  0  0  0
   -1.7829   -2.7973   -1.2045 C   0  0  0  0  0  0  0  0  0  0  0  0
   -1.3984   -3.3997   -0.0029 C   0  0  0  0  0  0  0  0  0  0  0  0
   -0.4864   -4.4518    0.0031 C   0  0  0  0  0  0  0  0  0  0  0  0
   -0.0565   -4.9905   -1.2069 C   0  0  0  0  0  0  0  0  0  0  0  0
    0.0519   -4.9991    1.1388 O   0  0  0  0  0  0  0  0  0  0  0  0
   -0.0014   -4.1508    2.3066 C   0  0  2  0  0  0  0  0  0  0  0  0
   -1.4041   -3.6265    2.5052 C   0  0  0  0  0  0  0  0  0  0  0  0
   -2.0816   -3.7864    3.5093 O   0  0  0  0  0  0  0  0  0  0  0  0
   -1.9430   -2.9223    1.2793 C   0  0  0  0  0  0  0  0  0  0  0  0
   -2.7625   -2.0232    1.3575 O   0  0  0  0  0  0  0  0  0  0  0  0
    1.0754   -3.0794    2.2558 C   0  0  1  0  0  0  0  0  0  0  0  0
    2.4356   -3.5518    2.1893 O   0  0  0  0  0  0  0  0  0  0  0  0
    0.8638   -1.8806    1.5414 N   0  0  0  0  0  0  0  0  0  0  0  0
    0.9013   -1.7582    2.8922 C   0  0  0  0  0  0  0  0  0  0  0  0
    0.1298   -1.4942    3.7746 O   0  0  0  0  0  0  0  0  0  0  0  0
    1.5428    1.2371   -3.9253 C   0  0  0  0  0  0  0  0  0  0  0  0
    2.2582    0.3456   -3.4926 O   0  0  0  0  0  0  0  0  0  0  0  0
    2.1217    2.5843   -4.3214 C   0  0  0  0  0  0  0  0  0  0  0  0
    3.3219    2.7977   -4.2434 O   0  0  0  0  0  0  0  0  0  0  0  0
    1.2046    3.6445   -4.8933 C   0  0  0  0  0  0  0  0  0  0  0  0
    1.6037    4.4671   -5.7052 O   0  0  0  0  0  0  0  0  0  0  0  0
  1  2  1  0  0  0  0
  3  4  1  0  0  0  0
  3 48  1  0  0  0  0
  3  2  1  1  0  0  0
  4  5  1  0  0  0  0
  5  6  1  1  0  0  0
  5 44  1  0  0  0  0
  6  7  1  0  0  0  0
  7  8  2  0  0  0  0
  7 12  1  0  0  0  0
  8  9  1  0  0  0  0
  8 23  1  0  0  0  0
  9 10  1  0  0  0  0
 10 11  2  0  0  0  0
 10 21  1  0  0  0  0
 11 12  1  0  0  0  0
 11 13  1  0  0  0  0
 13 14  1  0  0  0  0
 13 19  2  0  0  0  0
 14 15  1  0  0  0  0
 15 16  2  0  0  0  0
 15 17  1  0  0  0  0
 17 18  1  0  0  0  0
 18 19  1  0  0  0  0
 19 20  1  0  0  0  0
 20 21  2  0  0  0  0
 20 22  1  0  0  0  0
 23 24  2  0  0  0  0
 23 28  1  0  0  0  0
 24 25  1  0  0  0  0
 25 26  2  0  0  0  0
 26 27  1  0  0  0  0
 27 28  2  0  0  0  0
 27 32  1  0  0  0  0
 28 29  1  0  0  0  0
 29 30  2  0  0  0  0
 30 31  1  0  0  0  0
 30 37  1  0  0  0  0
 31 32  2  0  0  0  0
 31 33  1  0  0  0  0
 34 33  1  6  0  0  0
 34 35  1  0  0  0  0
 34 39  1  0  0  0  0
 35 36  2  0  0  0  0
 35 37  1  0  0  0  0
 37 38  2  0  0  0  0
 39 40  1  6  0  0  0
 39 41  1  0  0  0  0
 39 42  1  0  0  0  0
 41 42  1  0  0  0  0
 42 43  2  0  0  0  0
 44 45  2  0  0  0  0
 44 46  1  0  0  0  0
 46 47  2  0  0  0  0
 46 48  1  0  0  0  0
 48 49  2  0  0  0  0
M  END
$$$$