
 OpenBabel11222002223D

 54 62  0  0  1  0  0  0  0  0999 V2000
    4.2522    3.7579   -1.5819 O   0  0  0  0  0  0  0  0  0  0  0  0
    2.9536    3.5488   -1.1899 C   0  0  0  0  0  0  0  0  0  0  0  0
    2.1760    2.6243   -1.7674 C   0  0  0  0  0  0  0  0  0  0  0  0
    2.6983    1.8476   -2.7852 O   0  0  0  0  0  0  0  0  0  0  0  0
    1.9390    0.7711   -3.3049 C   0  0  2  0  0  0  0  0  0  0  0  0
    2.4558    0.3272   -4.5871 O   0  0  0  0  0  0  0  0  0  0  0  0
    2.4134    1.2131   -5.6608 C   0  0  0  0  0  0  0  0  0  0  0  0
    2.2903    0.7622   -6.9268 C   0  0  0  0  0  0  0  0  0  0  0  0
    2.2297    1.6077   -8.0378 O   0  0  0  0  0  0  0  0  0  0  0  0
    2.3390    2.9918   -7.8562 C   0  0  0  0  0  0  0  0  0  0  0  0
    2.5123    3.5231   -6.6329 C   0  0  0  0  0  0  0  0  0  0  0  0
    2.5533    2.6875   -5.3947 C   0  0  0  0  0  0  0  0  0  0  0  0
    2.6631    5.0013   -6.4059 C   0  0  3  0  0  0  0  0  0  0  0  0
    3.9672    5.2196   -5.9003 O   0  0  0  0  0  0  0  0  0  0  0  0
    4.3621    6.5030   -5.6863 C   0  0  0  0  0  0  0  0  0  0  0  0
    5.3295    6.7624   -4.9898 O   0  0  0  0  0  0  0  0  0  0  0  0
    3.6320    7.4626   -6.3045 O   0  0  0  0  0  0  0  0  0  0  0  0
    2.7288    7.2092   -7.3743 C   0  0  3  0  0  0  0  0  0  0  0  0
    2.5713    5.7621   -7.6677 C   0  0  0  0  0  0  0  0  0  0  0  0
    2.3795    5.1772   -8.8702 C   0  0  0  0  0  0  0  0  0  0  0  0
    2.2693    3.7966   -8.9714 O   0  3  0  0  0  0  0  0  0  0  0  0
    2.2927    5.9299  -10.1413 C   0  0  0  0  0  0  0  0  0  0  0  0
    3.4652    6.1950  -10.9200 O   0  0  0  0  0  0  0  0  0  0  0  0
    2.4813    5.2571  -11.3981 O   0  0  0  0  0  0  0  0  0  0  0  0
    1.4355    7.6400   -6.9977 O   0  0  0  0  0  0  0  0  0  0  0  0
    2.2464   -0.6854   -7.2362 C   0  0  0  0  0  0  0  0  0  0  0  0
    3.4536   -1.3257   -7.4834 C   0  0  0  0  0  0  0  0  0  0  0  0
    3.4236   -2.6765   -7.7112 C   0  0  0  0  0  0  0  0  0  0  0  0
    4.5727   -3.3095   -7.9711 F   0  0  0  0  0  0  0  0  0  0  0  0
    2.3028   -3.4063   -7.7027 N   0  0  0  0  0  0  0  0  0  0  0  0
    1.1273   -2.8094   -7.4531 N   0  3  0  0  0  0  0  0  0  0  0  0
    1.0433   -1.4501   -7.2275 C   0  0  0  0  0  0  0  0  0  0  0  0
   -0.2365   -0.9001   -7.0125 C   0  0  0  0  0  0  0  0  0  0  0  0
   -1.3634   -1.7146   -6.9898 C   0  0  0  0  0  0  0  0  0  0  0  0
   -2.6858   -1.1309   -6.7447 C   0  0  0  0  0  0  0  0  0  0  0  0
   -2.8285    0.0696   -6.6017 O   0  0  0  0  0  0  0  0  0  0  0  0
   -3.8413   -2.0986   -6.7565 C   0  0  0  0  0  0  0  0  0  0  0  0
   -4.9246   -1.7583   -7.2024 O   0  0  0  0  0  0  0  0  0  0  0  0
   -3.4595   -3.4944   -6.3283 C   0  0  1  0  0  0  0  0  0  0  0  0
   -2.2964   -3.9541   -7.0585 O   0  0  0  0  0  0  0  0  0  0  0  0
   -1.2410   -3.0800   -7.1699 C   0  0  0  0  0  0  0  0  0  0  0  0
    0.0294   -3.6267   -7.4369 C   0  0  0  0  0  0  0  0  0  0  0  0
    0.1721   -5.0191   -7.5488 N   0  0  0  0  0  0  0  0  0  0  0  0
   -3.3248   -3.6325   -4.8303 C   0  0  1  0  0  0  0  0  0  0  0  0
   -4.5073   -3.3358   -4.0689 O   0  0  0  0  0  0  0  0  0  0  0  0
   -2.5859   -4.7734   -4.3775 O   0  0  0  0  0  0  0  0  0  0  0  0
   -2.0654   -3.5699   -4.1010 C   0  0  0  0  0  0  0  0  0  0  0  0
   -0.9843   -3.0787   -4.3773 O   0  0  0  0  0  0  0  0  0  0  0  0
    0.4449    1.0305   -3.3898 C   0  0  0  0  0  0  0  0  0  0  0  0
   -0.2560    0.8709   -4.3795 O   0  0  0  0  0  0  0  0  0  0  0  0
   -0.1003    1.5787   -2.1099 C   0  0  0  0  0  0  0  0  0  0  0  0
   -1.1953    1.2086   -1.7249 O   0  0  0  0  0  0  0  0  0  0  0  0
    0.7511    2.5517   -1.3264 C   0  0  0  0  0  0  0  0  0  0  0  0
    0.2679    3.2497   -0.4523 O   0  0  0  0  0  0  0  0  0  0  0  0
  1  2  1  0  0  0  0
  2  3  2  0  0  0  0
  3  4  1  0  0  0  0
  3 53  1  0  0  0  0
  4  5  1  0  0  0  0
  5  6  1  6  0  0  0
  5 49  1  0  0  0  0
  6  7  1  0  0  0  0
  7  8  2  0  0  0  0
  7 12  1  0  0  0  0
  8  9  1  0  0  0  0
  8 26  1  0  0  0  0
  9 10  1  0  0  0  0
 10 11  2  0  0  0  0
 10 21  1  0  0  0  0
 11 12  1  0  0  0  0
 11 13  1  0  0  0  0
 13 14  1  0  0  0  0
 13 19  1  0  0  0  0
 14 15  1  0  0  0  0
 15 16  2  0  0  0  0
 15 17  1  0  0  0  0
 17 18  1  0  0  0  0
 18 19  1  0  0  0  0
 18 25  1  0  0  0  0
 19 20  2  0  0  0  0
 20 21  1  0  0  0  0
 20 22  1  0  0  0  0
 22 23  1  0  0  0  0
 22 24  1  0  0  0  0
 23 24  1  0  0  0  0
 26 27  2  0  0  0  0
 26 32  1  0  0  0  0
 27 28  1  0  0  0  0
 28 29  1  0  0  0  0
 28 30  2  0  0  0  0
 30 31  1  0  0  0  0
 31 32  2  0  0  0  0
 31 42  1  0  0  0  0
 32 33  1  0  0  0  0
 33 34  2  0  0  0  0
 34 35  1  0  0  0  0
 34 41  1  0  0  0  0
 35 36  2  0  0  0  0
 35 37  1  0  0  0  0
 37 38  2  0  0  0  0
 39 37  1  1  0  0  0
 39 40  1  0  0  0  0
 39 44  1  0  0  0  0
 40 41  1  0  0  0  0
 41 42  2  0  0  0  0
 42 43  1  0  0  0  0
 44 45  1  1  0  0  0
 44 46  1  0  0  0  0
 44 47  1  0  0  0  0
 46 47  1  0  0  0  0
 47 48  2  0  0  0  0
 49 50  2  0  0  0  0
 49 51  1  0  0  0  0
 51 52  2  0  0  0  0
 51 53  1  0  0  0  0
 53 54  2  0  0  0  0
M  CHG  2  21   1  31   1
M  END
$$$$