
 OpenBabel11172006153D

 52 60  0  0  1  0  0  0  0  0999 V2000
   -0.8533    5.3714   -0.8623 O   0  0  0  0  0  0  0  0  0  0  0  0
   -0.9971    4.0775   -0.4349 C   0  0  0  0  0  0  0  0  0  0  0  0
   -0.4127    3.0426   -1.0486 C   0  0  0  0  0  0  0  0  0  0  0  0
    0.3208    3.1921   -2.2100 O   0  0  0  0  0  0  0  0  0  0  0  0
    1.6362    2.6422   -2.1278 C   0  0  2  0  0  0  0  0  0  0  0  0
    2.2526    2.5773   -3.4268 O   0  0  0  0  0  0  0  0  0  0  0  0
    2.3926    3.7805   -4.1088 C   0  0  0  0  0  0  0  0  0  0  0  0
    2.3563    3.8319   -5.4579 C   0  0  0  0  0  0  0  0  0  0  0  0
    2.4894    5.0155   -6.1783 O   0  0  0  0  0  0  0  0  0  0  0  0
    2.5837    6.2179   -5.4907 C   0  0  0  0  0  0  0  0  0  0  0  0
    2.6973    6.2697   -4.1519 C   0  0  0  0  0  0  0  0  0  0  0  0
    2.6619    5.0342   -3.3150 C   0  0  0  0  0  0  0  0  0  0  0  0
    2.7128    7.5940   -3.4369 C   0  0  3  0  0  0  0  0  0  0  0  0
    3.9433    7.7465   -2.7091 N   0  0  0  0  0  0  0  0  0  0  0  0
    4.2930    8.9192   -2.1327 C   0  0  0  0  0  0  0  0  0  0  0  0
    5.1667    8.9780   -1.2767 O   0  0  0  0  0  0  0  0  0  0  0  0
    3.6429   10.0251   -2.5607 N   0  0  0  0  0  0  0  0  0  0  0  0
    2.6286   10.0596   -3.5646 C   0  0  3  0  0  0  0  0  0  0  0  0
    2.5972    8.7890   -4.3332 C   0  0  0  0  0  0  0  0  0  0  0  0
    2.5068    8.6529   -5.6764 C   0  0  0  0  0  0  0  0  0  0  0  0
    2.5109    7.3763   -6.2244 N   0  0  0  0  0  0  0  0  0  0  0  0
    2.3739    9.7806   -6.6252 C   0  0  0  0  0  0  0  0  0  0  0  0
    3.3746   10.8055   -6.7432 O   0  0  0  0  0  0  0  0  0  0  0  0
    3.1719    9.8686   -7.8177 O   0  0  0  0  0  0  0  0  0  0  0  0
    1.4101   10.2080   -2.8712 O   0  0  0  0  0  0  0  0  0  0  0  0
    2.1951    2.6358   -6.3025 C   0  0  0  0  0  0  0  0  0  0  0  0
    3.3335    1.9399   -6.6808 C   0  0  0  0  0  0  0  0  0  0  0  0
    3.2911    0.8229   -7.4288 N   0  0  0  0  0  0  0  0  0  0  0  0
    2.0825    0.3327   -7.8285 N   0  0  0  0  0  0  0  0  0  0  0  0
    0.9419    0.9526   -7.4982 C   0  0  0  0  0  0  0  0  0  0  0  0
    0.9443    2.1397   -6.7349 C   0  0  0  0  0  0  0  0  0  0  0  0
   -0.2944    2.7607   -6.4507 C   0  0  0  0  0  0  0  0  0  0  0  0
   -1.4950    2.1903   -6.8882 C   0  0  0  0  0  0  0  0  0  0  0  0
   -1.4909    0.9895   -7.5830 C   0  0  0  0  0  0  0  0  0  0  0  0
   -0.2692    0.4012   -7.9069 C   0  0  0  0  0  0  0  0  0  0  0  0
   -2.6108    0.3174   -7.9864 O   0  0  0  0  0  0  0  0  0  0  0  0
   -3.8564    0.7009   -7.3786 C   0  0  2  0  0  0  0  0  0  0  0  0
   -4.0019    2.1904   -7.1983 C   0  0  0  0  0  0  0  0  0  0  0  0
   -5.0136    2.8322   -7.4403 O   0  0  0  0  0  0  0  0  0  0  0  0
   -2.7744    2.8586   -6.6275 C   0  0  0  0  0  0  0  0  0  0  0  0
   -2.8547    3.8917   -5.9836 O   0  0  0  0  0  0  0  0  0  0  0  0
   -4.0763   -0.0374   -6.0858 C   0  0  1  0  0  0  0  0  0  0  0  0
   -3.0857    0.1535   -5.0494 O   0  0  0  0  0  0  0  0  0  0  0  0
   -5.4215   -0.0306   -5.5917 O   0  0  0  0  0  0  0  0  0  0  0  0
   -4.9315   -1.2053   -6.0045 C   0  0  0  0  0  0  0  0  0  0  0  0
   -5.3571   -1.9896   -6.8335 O   0  0  0  0  0  0  0  0  0  0  0  0
    1.7160    1.2371   -1.5415 C   0  0  0  0  0  0  0  0  0  0  0  0
    2.7457    0.6188   -1.3130 O   0  0  0  0  0  0  0  0  0  0  0  0
    0.3791    0.6991   -1.1079 C   0  0  0  0  0  0  0  0  0  0  0  0
    0.0730   -0.4667   -1.2844 O   0  0  0  0  0  0  0  0  0  0  0  0
   -0.5781    1.6824   -0.4766 C   0  0  0  0  0  0  0  0  0  0  0  0
   -1.3328    1.3820    0.4293 O   0  0  0  0  0  0  0  0  0  0  0  0
  1  2  1  0  0  0  0
  2  3  2  0  0  0  0
  3  4  1  0  0  0  0
  3 51  1  0  0  0  0
  4  5  1  0  0  0  0
  5  6  1  6  0  0  0
  5 47  1  0  0  0  0
  6  7  1  0  0  0  0
  7  8  2  0  0  0  0
  7 12  1  0  0  0  0
  8  9  1  0  0  0  0
  8 26  1  0  0  0  0
  9 10  1  0  0  0  0
 10 11  2  0  0  0  0
 10 21  1  0  0  0  0
 11 12  1  0  0  0  0
 11 13  1  0  0  0  0
 13 14  1  0  0  0  0
 13 19  1  0  0  0  0
 14 15  1  0  0  0  0
 15 16  2  0  0  0  0
 15 17  1  0  0  0  0
 17 18  1  0  0  0  0
 18 19  1  0  0  0  0
 18 25  1  0  0  0  0
 19 20  2  0  0  0  0
 20 21  1  0  0  0  0
 20 22  1  0  0  0  0
 22 23  1  0  0  0  0
 22 24  1  0  0  0  0
 23 24  1  0  0  0  0
 26 27  2  0  0  0  0
 26 31  1  0  0  0  0
 27 28  1  0  0  0  0
 28 29  2  0  0  0  0
 29 30  1  0  0  0  0
 30 31  2  0  0  0  0
 30 35  1  0  0  0  0
 31 32  1  0  0  0  0
 32 33  2  0  0  0  0
 33 34  1  0  0  0  0
 33 40  1  0  0  0  0
 34 35  2  0  0  0  0
 34 36  1  0  0  0  0
 37 36  1  1  0  0  0
 37 38  1  0  0  0  0
 37 42  1  0  0  0  0
 38 39  2  0  0  0  0
 38 40  1  0  0  0  0
 40 41  2  0  0  0  0
 42 43  1  1  0  0  0
 42 44  1  0  0  0  0
 42 45  1  0  0  0  0
 44 45  1  0  0  0  0
 45 46  2  0  0  0  0
 47 48  2  0  0  0  0
 47 49  1  0  0  0  0
 49 50  2  0  0  0  0
 49 51  1  0  0  0  0
 51 52  2  0  0  0  0
M  END
$$$$