
 OpenBabel11232001343D

 52 60  0  0  1  0  0  0  0  0999 V2000
   -1.7283   -0.1323   -4.2792 O   0  0  0  0  0  0  0  0  0  0  0  0
   -1.1630    0.4012   -3.1499 C   0  0  0  0  0  0  0  0  0  0  0  0
   -0.0974   -0.1464   -2.5547 C   0  0  0  0  0  0  0  0  0  0  0  0
    0.4608   -1.3139   -3.0521 O   0  0  0  0  0  0  0  0  0  0  0  0
    1.8580   -1.4374   -2.8149 C   0  0  2  0  0  0  0  0  0  0  0  0
    2.3856   -2.6478   -3.3805 O   0  0  0  0  0  0  0  0  0  0  0  0
    2.2519   -2.8070   -4.7510 C   0  0  0  0  0  0  0  0  0  0  0  0
    2.1338   -4.0394   -5.2807 C   0  0  0  0  0  0  0  0  0  0  0  0
    2.1070   -4.2830   -6.6429 O   0  0  0  0  0  0  0  0  0  0  0  0
    2.4493   -3.2570   -7.5091 C   0  0  0  0  0  0  0  0  0  0  0  0
    2.6579   -1.9947   -7.0871 C   0  0  0  0  0  0  0  0  0  0  0  0
    2.4063   -1.6070   -5.6577 C   0  0  0  0  0  0  0  0  0  0  0  0
    3.1075   -0.9348   -8.0711 C   0  0  3  0  0  0  0  0  0  0  0  0
    4.3914   -0.4246   -7.6568 N   0  0  0  0  0  0  0  0  0  0  0  0
    5.2261    0.2622   -8.4722 C   0  0  0  0  0  0  0  0  0  0  0  0
    6.1707    0.8924   -8.0139 O   0  0  0  0  0  0  0  0  0  0  0  0
    4.9885    0.1814   -9.8002 N   0  0  0  0  0  0  0  0  0  0  0  0
    3.8043   -0.3781  -10.3932 C   0  0  0  0  0  0  0  0  0  0  0  0
    3.2759   -1.4352   -9.4842 C   0  0  0  0  0  0  0  0  0  0  0  0
    3.0122   -2.7180   -9.8186 C   0  0  0  0  0  0  0  0  0  0  0  0
    2.5847   -3.5887   -8.8297 N   0  0  0  0  0  0  0  0  0  0  0  0
    3.1715   -3.2936  -11.1746 C   0  0  0  0  0  0  0  0  0  0  0  0
    4.4110   -3.8760  -11.6051 O   0  0  0  0  0  0  0  0  0  0  0  0
    3.2601   -4.7149  -11.3891 O   0  0  0  0  0  0  0  0  0  0  0  0
    2.1653   -5.2580   -4.4637 C   0  0  0  0  0  0  0  0  0  0  0  0
    3.4117   -5.8340   -4.2519 C   0  0  0  0  0  0  0  0  0  0  0  0
    3.5330   -6.9363   -3.5098 N   0  3  0  0  0  0  0  0  0  0  0  0
    4.7562   -7.4669   -3.3236 F   0  0  0  0  0  0  0  0  0  0  0  0
    2.4964   -7.5345   -2.9483 N   0  0  0  0  0  0  0  0  0  0  0  0
    1.2755   -7.0170   -3.1088 C   0  0  0  0  0  0  0  0  0  0  0  0
    1.0417   -5.8570   -3.8712 C   0  0  0  0  0  0  0  0  0  0  0  0
   -0.2817   -5.3680   -3.9910 C   0  0  0  0  0  0  0  0  0  0  0  0
   -1.3386   -6.0069   -3.3312 C   0  0  0  0  0  0  0  0  0  0  0  0
   -1.0971   -7.1367   -2.5678 C   0  0  0  0  0  0  0  0  0  0  0  0
    0.2008   -7.6450   -2.4878 C   0  0  0  0  0  0  0  0  0  0  0  0
   -2.0566   -7.8150   -1.8727 O   0  0  0  0  0  0  0  0  0  0  0  0
   -3.2020   -7.0470   -1.4753 C   0  0  2  0  0  0  0  0  0  0  0  0
   -3.7482   -6.1031   -2.5244 C   0  0  0  0  0  0  0  0  0  0  0  0
   -4.9250   -5.7836   -2.6141 O   0  0  0  0  0  0  0  0  0  0  0  0
   -2.7080   -5.4937   -3.4390 C   0  0  0  0  0  0  0  0  0  0  0  0
   -2.9889   -4.6138   -4.2364 O   0  0  0  0  0  0  0  0  0  0  0  0
   -2.9243   -6.3253   -0.1922 C   0  0  1  0  0  0  0  0  0  0  0  0
   -1.8030   -5.4021   -0.1932 O   0  0  0  0  0  0  0  0  0  0  0  0
   -4.0818   -5.8897    0.5180 O   0  0  0  0  0  0  0  0  0  0  0  0
   -3.3309   -6.8278    1.1228 C   0  0  0  0  0  0  0  0  0  0  0  0
   -2.7328   -6.7877    2.1763 O   0  0  0  0  0  0  0  0  0  0  0  0
    2.0917   -1.4932   -1.3190 C   0  0  0  0  0  0  0  0  0  0  0  0
    2.6618   -2.3875   -0.7109 O   0  0  0  0  0  0  0  0  0  0  0  0
    1.5201   -0.2855   -0.6217 C   0  0  0  0  0  0  0  0  0  0  0  0
    1.9505    0.0516    0.4680 O   0  0  0  0  0  0  0  0  0  0  0  0
    0.4395    0.5136   -1.3274 C   0  0  0  0  0  0  0  0  0  0  0  0
    0.0889    1.6115   -0.9317 O   0  0  0  0  0  0  0  0  0  0  0  0
  1  2  1  0  0  0  0
  2  3  2  0  0  0  0
  3  4  1  0  0  0  0
  3 51  1  0  0  0  0
  4  5  1  0  0  0  0
  5  6  1  6  0  0  0
  5 47  1  0  0  0  0
  6  7  1  0  0  0  0
  7  8  2  0  0  0  0
  7 12  1  0  0  0  0
  8  9  1  0  0  0  0
  8 25  1  0  0  0  0
  9 10  1  0  0  0  0
 10 11  2  0  0  0  0
 10 21  1  0  0  0  0
 11 12  1  0  0  0  0
 11 13  1  0  0  0  0
 13 14  1  0  0  0  0
 13 19  1  0  0  0  0
 14 15  1  0  0  0  0
 15 16  2  0  0  0  0
 15 17  1  0  0  0  0
 17 18  1  0  0  0  0
 18 19  1  0  0  0  0
 19 20  2  0  0  0  0
 20 21  1  0  0  0  0
 20 22  1  0  0  0  0
 22 23  1  0  0  0  0
 22 24  1  0  0  0  0
 23 24  1  0  0  0  0
 25 26  2  0  0  0  0
 25 31  1  0  0  0  0
 26 27  1  0  0  0  0
 27 28  1  0  0  0  0
 27 29  2  0  0  0  0
 29 30  1  0  0  0  0
 30 31  2  0  0  0  0
 30 35  1  0  0  0  0
 31 32  1  0  0  0  0
 32 33  2  0  0  0  0
 33 34  1  0  0  0  0
 33 40  1  0  0  0  0
 34 35  2  0  0  0  0
 34 36  1  0  0  0  0
 37 36  1  6  0  0  0
 37 38  1  0  0  0  0
 37 42  1  0  0  0  0
 38 39  2  0  0  0  0
 38 40  1  0  0  0  0
 40 41  2  0  0  0  0
 42 43  1  6  0  0  0
 42 44  1  0  0  0  0
 42 45  1  0  0  0  0
 44 45  1  0  0  0  0
 45 46  2  0  0  0  0
 47 48  2  0  0  0  0
 47 49  1  0  0  0  0
 49 50  2  0  0  0  0
 49 51  1  0  0  0  0
 51 52  2  0  0  0  0
M  CHG  1  27   1
M  END
$$$$