
 OpenBabel11252002063D

 52 61  0  0  1  0  0  0  0  0999 V2000
   -0.5547  -15.1372  -10.1010 O   0  0  0  0  0  0  0  0  0  0  0  0
   -0.4969  -14.8597  -11.4437 C   0  0  0  0  0  0  0  0  0  0  0  0
    0.0989  -13.7606  -11.9177 C   0  0  0  0  0  0  0  0  0  0  0  0
    0.6651  -12.8476  -11.0445 O   0  0  0  0  0  0  0  0  0  0  0  0
    1.8906  -12.3181  -11.5291 C   0  0  2  0  0  0  0  0  0  0  0  0
    2.5292  -11.5271  -10.5163 O   0  0  0  0  0  0  0  0  0  0  0  0
    3.0927  -12.2178   -9.4478 C   0  0  0  0  0  0  0  0  0  0  0  0
    3.2749  -11.6227   -8.2450 C   0  0  0  0  0  0  0  0  0  0  0  0
    3.8910  -12.2793   -7.1829 O   0  0  0  0  0  0  0  0  0  0  0  0
    4.3267  -13.5878   -7.3287 C   0  0  0  0  0  0  0  0  0  0  0  0
    4.2222  -14.2416   -8.4939 C   0  0  0  0  0  0  0  0  0  0  0  0
    3.5733  -13.6346   -9.6847 C   0  0  0  0  0  0  0  0  0  0  0  0
    4.7504  -15.6073   -8.6010 C   0  0  0  0  0  0  0  0  0  0  0  0
    4.5439  -16.2466   -9.7729 N   0  0  0  0  0  0  0  0  0  0  0  0
    5.0501  -17.4852   -9.8590 C   0  0  0  0  0  0  0  0  0  0  0  0
    5.7267  -18.1215   -8.8943 N   0  0  0  0  0  0  0  0  0  0  0  0
    5.9147  -17.4387   -7.7489 C   0  0  0  0  0  0  0  0  0  0  0  0
    5.4475  -16.1587   -7.5402 C   0  0  0  0  0  0  0  0  0  0  0  0
    5.7098  -15.3786   -6.2845 C   0  0  3  0  0  0  0  0  0  0  0  0
    4.8708  -14.1778   -6.2139 N   0  0  0  0  0  0  0  0  0  0  0  0
    7.1615  -14.9489   -6.2277 C   0  0  0  0  0  0  0  0  0  0  0  0
    7.6773  -14.2482   -5.0455 N   0  0  0  0  0  0  0  0  0  0  0  0
    8.1342  -15.5656   -5.3394 N   0  0  0  0  0  0  0  0  0  0  0  0
    2.8801  -10.2176   -7.9408 C   0  0  0  0  0  0  0  0  0  0  0  0
    3.1159   -9.2494   -8.9164 C   0  0  0  0  0  0  0  0  0  0  0  0
    2.7677   -7.9769   -8.7263 N   0  3  0  0  0  0  0  0  0  0  0  0
    2.9906   -7.0853   -9.7104 F   0  0  0  0  0  0  0  0  0  0  0  0
    2.2139   -7.5529   -7.6092 N   0  0  0  0  0  0  0  0  0  0  0  0
    1.9951   -8.4118   -6.6106 C   0  0  0  0  0  0  0  0  0  0  0  0
    2.3157   -9.7817   -6.7094 C   0  0  0  0  0  0  0  0  0  0  0  0
    2.0537  -10.6012   -5.5723 C   0  0  0  0  0  0  0  0  0  0  0  0
    1.5249  -10.0711   -4.3848 C   0  0  0  0  0  0  0  0  0  0  0  0
    1.1746   -8.7330   -4.3238 C   0  0  0  0  0  0  0  0  0  0  0  0
    1.4263   -7.9258   -5.4313 C   0  0  0  0  0  0  0  0  0  0  0  0
    1.1098   -6.6225   -5.3610 F   0  0  0  0  0  0  0  0  0  0  0  0
    0.5970   -8.1521   -3.2208 O   0  0  0  0  0  0  0  0  0  0  0  0
   -0.0108   -9.0987   -2.3067 C   0  0  1  0  0  0  0  0  0  0  0  0
    0.8372  -10.2372   -1.9355 C   0  0  0  0  0  0  0  0  0  0  0  0
    1.0931  -10.5973   -0.8037 O   0  0  0  0  0  0  0  0  0  0  0  0
    1.3643  -10.9173   -3.1853 C   0  0  0  0  0  0  0  0  0  0  0  0
    1.6336  -12.1051   -3.2039 O   0  0  0  0  0  0  0  0  0  0  0  0
   -0.8633   -8.5730   -1.3239 O   0  0  0  0  0  0  0  0  0  0  0  0
   -1.4833   -9.3681   -2.3792 C   0  0  1  0  0  0  0  0  0  0  0  0
   -1.9716   -8.6741   -3.5861 O   0  0  0  0  0  0  0  0  0  0  0  0
   -2.8056   -8.8263   -2.5763 C   0  0  0  0  0  0  0  0  0  0  0  0
   -3.9096   -9.3182   -2.5309 O   0  0  0  0  0  0  0  0  0  0  0  0
    1.5772  -11.4502  -12.7267 C   0  0  0  0  0  0  0  0  0  0  0  0
    1.8884  -10.2754  -12.8525 O   0  0  0  0  0  0  0  0  0  0  0  0
    0.8298  -12.2256  -13.7902 C   0  0  0  0  0  0  0  0  0  0  0  0
    0.8253  -11.8310  -14.9404 O   0  0  0  0  0  0  0  0  0  0  0  0
    0.1463  -13.5289  -13.3931 C   0  0  0  0  0  0  0  0  0  0  0  0
   -0.2679  -14.3208  -14.2206 O   0  0  0  0  0  0  0  0  0  0  0  0
  1  2  1  0  0  0  0
  2  3  2  0  0  0  0
  3  4  1  0  0  0  0
  3 51  1  0  0  0  0
  4  5  1  0  0  0  0
  5  6  1  1  0  0  0
  5 47  1  0  0  0  0
  6  7  1  0  0  0  0
  7  8  2  0  0  0  0
  7 12  1  0  0  0  0
  8  9  1  0  0  0  0
  8 24  1  0  0  0  0
  9 10  1  0  0  0  0
 10 11  2  0  0  0  0
 10 20  1  0  0  0  0
 11 12  1  0  0  0  0
 11 13  1  0  0  0  0
 13 14  2  0  0  0  0
 13 18  1  0  0  0  0
 14 15  1  0  0  0  0
 15 16  2  0  0  0  0
 16 17  1  0  0  0  0
 17 18  2  0  0  0  0
 18 19  1  0  0  0  0
 19 20  1  0  0  0  0
 19 21  1  0  0  0  0
 21 22  1  0  0  0  0
 21 23  1  0  0  0  0
 22 23  1  0  0  0  0
 24 25  2  0  0  0  0
 24 30  1  0  0  0  0
 25 26  1  0  0  0  0
 26 27  1  0  0  0  0
 26 28  2  0  0  0  0
 28 29  1  0  0  0  0
 29 30  2  0  0  0  0
 29 34  1  0  0  0  0
 30 31  1  0  0  0  0
 31 32  2  0  0  0  0
 32 33  1  0  0  0  0
 32 40  1  0  0  0  0
 33 34  2  0  0  0  0
 33 36  1  0  0  0  0
 34 35  1  0  0  0  0
 37 36  1  6  0  0  0
 37 38  1  0  0  0  0
 37 42  1  0  0  0  0
 37 43  1  0  0  0  0
 38 39  2  0  0  0  0
 38 40  1  0  0  0  0
 40 41  2  0  0  0  0
 43 42  1  1  0  0  0
 43 44  1  0  0  0  0
 43 45  1  0  0  0  0
 44 45  1  0  0  0  0
 45 46  2  0  0  0  0
 47 48  2  0  0  0  0
 47 49  1  0  0  0  0
 49 50  2  0  0  0  0
 49 51  1  0  0  0  0
 51 52  2  0  0  0  0
M  CHG  1  26   1
M  END
$$$$