
 OpenBabel11252003323D

 54 63  0  0  1  0  0  0  0  0999 V2000
   -7.8854   -7.3753   -8.7180 O   0  0  0  0  0  0  0  0  0  0  0  0
   -7.9293   -6.6380   -9.8747 C   0  0  0  0  0  0  0  0  0  0  0  0
   -6.9325   -5.8263  -10.2483 C   0  0  0  0  0  0  0  0  0  0  0  0
   -5.7910   -5.6793   -9.4695 O   0  0  0  0  0  0  0  0  0  0  0  0
   -4.6174   -5.4452  -10.2444 C   0  0  2  0  0  0  0  0  0  0  0  0
   -3.4691   -5.3943   -9.3815 O   0  0  0  0  0  0  0  0  0  0  0  0
   -2.6978   -6.5429   -9.2637 C   0  0  0  0  0  0  0  0  0  0  0  0
   -1.9677   -6.7614   -8.1509 C   0  0  0  0  0  0  0  0  0  0  0  0
   -1.0497   -7.7957   -8.0276 O   0  0  0  0  0  0  0  0  0  0  0  0
   -0.8017   -8.6103   -9.1221 C   0  0  0  0  0  0  0  0  0  0  0  0
   -1.4793   -8.4878  -10.2757 C   0  0  0  0  0  0  0  0  0  0  0  0
   -2.5406   -7.4564  -10.4574 C   0  0  0  0  0  0  0  0  0  0  0  0
   -1.1976   -9.4127  -11.4379 C   0  0  3  0  0  0  0  0  0  0  0  0
   -0.9564   -8.6226  -12.5862 O   0  0  0  0  0  0  0  0  0  0  0  0
   -0.7711   -9.3282  -13.7315 C   0  0  0  0  0  0  0  0  0  0  0  0
   -1.1337   -8.8752  -14.8075 O   0  0  0  0  0  0  0  0  0  0  0  0
   -0.1584  -10.5339  -13.6179 O   0  0  0  0  0  0  0  0  0  0  0  0
    0.3780  -10.9675  -12.4608 C   0  0  0  0  0  0  0  0  0  0  0  0
    1.0911  -11.9616  -12.4143 O   0  0  0  0  0  0  0  0  0  0  0  0
   -0.0036  -10.2565  -11.2439 C   0  0  0  0  0  0  0  0  0  0  0  0
    0.6536  -10.3344  -10.0645 C   0  0  0  0  0  0  0  0  0  0  0  0
    0.1862   -9.5534   -9.0025 N   0  0  0  0  0  0  0  0  0  0  0  0
    1.8579  -11.1526   -9.8161 C   0  0  3  0  0  0  0  0  0  0  0  0
    2.7672  -10.7430   -8.7968 N   0  0  0  0  0  0  0  0  0  0  0  0
    3.1249  -10.5283   -9.9682 N   0  0  0  0  0  0  0  0  0  0  0  0
   -1.9720   -5.8382   -7.0074 C   0  0  0  0  0  0  0  0  0  0  0  0
   -0.9807   -4.8669   -6.9884 C   0  0  0  0  0  0  0  0  0  0  0  0
   -0.9220   -3.9801   -5.9948 N   0  3  0  0  0  0  0  0  0  0  0  0
    0.0495   -3.0480   -6.0096 F   0  0  0  0  0  0  0  0  0  0  0  0
   -1.7868   -3.9701   -4.9975 N   0  0  0  0  0  0  0  0  0  0  0  0
   -2.7853   -4.8636   -4.9672 C   0  0  0  0  0  0  0  0  0  0  0  0
   -2.9200   -5.8510   -5.9669 C   0  0  0  0  0  0  0  0  0  0  0  0
   -3.9900   -6.7725   -5.8833 C   0  0  0  0  0  0  0  0  0  0  0  0
   -4.9210   -6.6834   -4.8452 C   0  0  0  0  0  0  0  0  0  0  0  0
   -4.8219   -5.6909   -3.8883 C   0  0  0  0  0  0  0  0  0  0  0  0
   -3.7278   -4.8038   -3.9163 C   0  0  0  0  0  0  0  0  0  0  0  0
   -3.7262   -3.7063   -3.0217 N   0  0  0  0  0  0  0  0  0  0  0  0
   -5.7067   -5.5756   -2.8432 O   0  0  0  0  0  0  0  0  0  0  0  0
   -7.0328   -6.1473   -3.0020 C   0  0  1  0  0  0  0  0  0  0  0  0
   -7.2813   -7.0962   -4.1038 C   0  0  0  0  0  0  0  0  0  0  0  0
   -8.3896   -7.3598   -4.5417 O   0  0  0  0  0  0  0  0  0  0  0  0
   -6.0303   -7.6262   -4.7460 C   0  0  0  0  0  0  0  0  0  0  0  0
   -5.9539   -8.7581   -5.1901 O   0  0  0  0  0  0  0  0  0  0  0  0
   -7.7033   -6.4544   -1.8036 O   0  0  0  0  0  0  0  0  0  0  0  0
   -8.2174   -5.3283   -2.5805 C   0  0  1  0  0  0  0  0  0  0  0  0
   -7.7205   -3.9762   -2.2257 O   0  0  0  0  0  0  0  0  0  0  0  0
   -8.8040   -4.4253   -1.6379 C   0  0  0  0  0  0  0  0  0  0  0  0
   -9.9201   -3.9565   -1.5088 O   0  0  0  0  0  0  0  0  0  0  0  0
   -4.7076   -4.1348  -11.0147 C   0  0  0  0  0  0  0  0  0  0  0  0
   -3.7907   -3.3437  -11.1755 O   0  0  0  0  0  0  0  0  0  0  0  0
   -6.0658   -3.9370  -11.6490 C   0  0  0  0  0  0  0  0  0  0  0  0
   -6.3490   -2.8967  -12.2159 O   0  0  0  0  0  0  0  0  0  0  0  0
   -7.0795   -5.0575  -11.5177 C   0  0  0  0  0  0  0  0  0  0  0  0
   -7.8673   -5.3293  -12.4045 O   0  0  0  0  0  0  0  0  0  0  0  0
  1  2  1  0  0  0  0
  2  3  2  0  0  0  0
  3  4  1  0  0  0  0
  3 53  1  0  0  0  0
  4  5  1  0  0  0  0
  5  6  1  1  0  0  0
  5 49  1  0  0  0  0
  6  7  1  0  0  0  0
  7  8  2  0  0  0  0
  7 12  1  0  0  0  0
  8  9  1  0  0  0  0
  8 26  1  0  0  0  0
  9 10  1  0  0  0  0
 10 11  2  0  0  0  0
 10 22  1  0  0  0  0
 11 12  1  0  0  0  0
 11 13  1  0  0  0  0
 13 14  1  0  0  0  0
 13 20  1  0  0  0  0
 14 15  1  0  0  0  0
 15 16  2  0  0  0  0
 15 17  1  0  0  0  0
 17 18  1  0  0  0  0
 18 19  2  0  0  0  0
 18 20  1  0  0  0  0
 20 21  2  0  0  0  0
 21 22  1  0  0  0  0
 21 23  1  0  0  0  0
 23 24  1  0  0  0  0
 23 25  1  0  0  0  0
 24 25  2  0  0  0  0
 26 27  2  0  0  0  0
 26 32  1  0  0  0  0
 27 28  1  0  0  0  0
 28 29  1  0  0  0  0
 28 30  2  0  0  0  0
 30 31  1  0  0  0  0
 31 32  2  0  0  0  0
 31 36  1  0  0  0  0
 32 33  1  0  0  0  0
 33 34  2  0  0  0  0
 34 35  1  0  0  0  0
 34 42  1  0  0  0  0
 35 36  2  0  0  0  0
 35 38  1  0  0  0  0
 36 37  1  0  0  0  0
 39 38  1  1  0  0  0
 39 40  1  0  0  0  0
 39 44  1  0  0  0  0
 39 45  1  0  0  0  0
 40 41  2  0  0  0  0
 40 42  1  0  0  0  0
 42 43  2  0  0  0  0
 45 44  1  1  0  0  0
 45 46  1  0  0  0  0
 45 47  1  0  0  0  0
 46 47  1  0  0  0  0
 47 48  2  0  0  0  0
 49 50  2  0  0  0  0
 49 51  1  0  0  0  0
 51 52  2  0  0  0  0
 51 53  1  0  0  0  0
 53 54  2  0  0  0  0
M  CHG  1  28   1
M  END
$$$$