
 OpenBabel11252022413D

 54 62  0  0  1  0  0  0  0  0999 V2000
    0.5676    7.1260    2.7086 O   0  0  0  0  0  0  0  0  0  0  0  0
   -0.2864    6.3494    1.9645 C   0  0  0  0  0  0  0  0  0  0  0  0
   -0.1057    5.0335    1.7937 C   0  0  0  0  0  0  0  0  0  0  0  0
    0.9975    4.3909    2.3397 O   0  0  0  0  0  0  0  0  0  0  0  0
    0.6338    3.1857    2.9751 C   0  0  2  0  0  0  0  0  0  0  0  0
    1.8026    2.5131    3.5359 O   0  0  0  0  0  0  0  0  0  0  0  0
    2.2501    2.8969    4.7877 C   0  0  0  0  0  0  0  0  0  0  0  0
    2.8750    2.0107    5.6027 C   0  0  0  0  0  0  0  0  0  0  0  0
    3.3427    2.4018    6.8795 O   0  0  0  0  0  0  0  0  0  0  0  0
    3.1454    3.7289    7.3387 C   0  0  0  0  0  0  0  0  0  0  0  0
    2.5359    4.6456    6.5590 C   0  0  0  0  0  0  0  0  0  0  0  0
    2.0825    4.3482    5.1642 C   0  0  0  0  0  0  0  0  0  0  0  0
    2.2219    6.0464    7.0416 C   0  0  3  0  0  0  0  0  0  0  0  0
    0.8183    6.1905    7.0155 O   0  0  0  0  0  0  0  0  0  0  0  0
    0.3216    7.3815    7.4591 C   0  0  0  0  0  0  0  0  0  0  0  0
   -0.7768    7.7619    7.0903 O   0  0  0  0  0  0  0  0  0  0  0  0
    1.0971    8.0795    8.3277 O   0  0  0  0  0  0  0  0  0  0  0  0
    2.1523    7.5241    8.9483 C   0  0  0  0  0  0  0  0  0  0  0  0
    2.7555    8.0637    9.8627 O   0  0  0  0  0  0  0  0  0  0  0  0
    2.6142    6.2321    8.4402 C   0  0  0  0  0  0  0  0  0  0  0  0
    3.2770    5.3107    9.1704 C   0  0  0  0  0  0  0  0  0  0  0  0
    3.5804    4.0688    8.6130 O   0  3  0  0  0  0  0  0  0  0  0  0
    3.6515    5.4600   10.6007 C   0  0  0  0  0  0  0  0  0  0  0  0
    2.8070    4.9192   11.6249 O   0  0  0  0  0  0  0  0  0  0  0  0
    4.0745    4.2997   11.3430 O   0  0  0  0  0  0  0  0  0  0  0  0
    3.0838    0.5530    5.1921 C   0  0  0  0  0  0  0  0  0  0  0  0
    2.0343   -0.1072    4.5195 C   0  0  0  0  0  0  0  0  0  0  0  0
    2.1897   -1.3404    4.0409 N   0  3  0  0  0  0  0  0  0  0  0  0
    1.2005   -1.8957    3.3097 F   0  0  0  0  0  0  0  0  0  0  0  0
    3.2724   -2.0430    4.2779 N   0  0  0  0  0  0  0  0  0  0  0  0
    4.2707   -1.4955    4.9931 C   0  0  0  0  0  0  0  0  0  0  0  0
    4.2371   -0.1721    5.4383 N   0  3  0  0  0  0  0  0  0  0  0  0
    5.3279    0.3249    6.0838 C   0  0  0  0  0  0  0  0  0  0  0  0
    6.4162   -0.4701    6.4306 C   0  0  0  0  0  0  0  0  0  0  0  0
    7.4477    0.0800    7.2962 C   0  0  0  0  0  0  0  0  0  0  0  0
    7.2198    1.1624    7.8176 O   0  0  0  0  0  0  0  0  0  0  0  0
    8.6687   -0.7699    7.5726 C   0  0  0  0  0  0  0  0  0  0  0  0
    9.4916   -0.3918    8.3881 O   0  0  0  0  0  0  0  0  0  0  0  0
    8.7612   -2.0370    6.7430 C   0  0  1  0  0  0  0  0  0  0  0  0
    7.4911   -2.6257    6.3872 O   0  0  0  0  0  0  0  0  0  0  0  0
    6.4678   -1.7832    6.0488 C   0  0  0  0  0  0  0  0  0  0  0  0
    5.3847   -2.3134    5.3327 C   0  0  0  0  0  0  0  0  0  0  0  0
    5.5243   -3.6101    4.7978 N   0  0  0  0  0  0  0  0  0  0  0  0
    9.5632   -1.8037    5.5073 C   0  0  1  0  0  0  0  0  0  0  0  0
    9.0010   -0.8683    4.5451 O   0  0  0  0  0  0  0  0  0  0  0  0
   10.9702   -1.7535    5.6704 O   0  0  0  0  0  0  0  0  0  0  0  0
   10.4974   -2.7964    4.9606 C   0  0  0  0  0  0  0  0  0  0  0  0
   10.6391   -3.0932    3.7926 O   0  0  0  0  0  0  0  0  0  0  0  0
    0.0442    2.1608    2.0273 C   0  0  0  0  0  0  0  0  0  0  0  0
    0.1982    0.9503    2.1766 O   0  0  0  0  0  0  0  0  0  0  0  0
   -0.8104    2.7762    0.9423 C   0  0  0  0  0  0  0  0  0  0  0  0
   -1.2178    2.0732    0.0364 O   0  0  0  0  0  0  0  0  0  0  0  0
   -1.1298    4.2593    1.0301 C   0  0  0  0  0  0  0  0  0  0  0  0
   -2.1757    4.7185    0.6150 O   0  0  0  0  0  0  0  0  0  0  0  0
  1  2  1  0  0  0  0
  2  3  2  0  0  0  0
  3  4  1  0  0  0  0
  3 53  1  0  0  0  0
  4  5  1  0  0  0  0
  5  6  1  6  0  0  0
  5 49  1  0  0  0  0
  6  7  1  0  0  0  0
  7  8  2  0  0  0  0
  7 12  1  0  0  0  0
  8  9  1  0  0  0  0
  8 26  1  0  0  0  0
  9 10  1  0  0  0  0
 10 11  2  0  0  0  0
 10 22  1  0  0  0  0
 11 12  1  0  0  0  0
 11 13  1  0  0  0  0
 13 14  1  0  0  0  0
 13 20  1  0  0  0  0
 14 15  1  0  0  0  0
 15 16  2  0  0  0  0
 15 17  1  0  0  0  0
 17 18  1  0  0  0  0
 18 19  2  0  0  0  0
 18 20  1  0  0  0  0
 20 21  2  0  0  0  0
 21 22  1  0  0  0  0
 21 23  1  0  0  0  0
 23 24  1  0  0  0  0
 23 25  1  0  0  0  0
 24 25  1  0  0  0  0
 26 27  2  0  0  0  0
 26 32  1  0  0  0  0
 27 28  1  0  0  0  0
 28 29  1  0  0  0  0
 28 30  2  0  0  0  0
 30 31  1  0  0  0  0
 31 32  2  0  0  0  0
 31 42  1  0  0  0  0
 32 33  1  0  0  0  0
 33 34  2  0  0  0  0
 34 35  1  0  0  0  0
 34 41  1  0  0  0  0
 35 36  2  0  0  0  0
 35 37  1  0  0  0  0
 37 38  2  0  0  0  0
 39 37  1  6  0  0  0
 39 40  1  0  0  0  0
 39 44  1  0  0  0  0
 40 41  1  0  0  0  0
 41 42  2  0  0  0  0
 42 43  1  0  0  0  0
 44 45  1  6  0  0  0
 44 46  1  0  0  0  0
 44 47  1  0  0  0  0
 46 47  1  0  0  0  0
 47 48  2  0  0  0  0
 49 50  2  0  0  0  0
 49 51  1  0  0  0  0
 51 52  2  0  0  0  0
 51 53  1  0  0  0  0
 53 54  2  0  0  0  0
M  CHG  3  22   1  28   1  32   1
M  END
$$$$