
 OpenBabel11242016163D

 54 62  0  0  1  0  0  0  0  0999 V2000
    5.9203   -1.4992    3.0405 O   0  0  0  0  0  0  0  0  0  0  0  0
    5.3199   -1.0091    1.8996 C   0  0  0  0  0  0  0  0  0  0  0  0
    4.3046   -0.1313    1.9296 C   0  0  0  0  0  0  0  0  0  0  0  0
    3.9218    0.2412    3.1854 O   0  3  0  0  0  0  0  0  0  0  0  0
    2.8789    0.9833    3.3484 C   0  0  0  0  0  0  0  0  0  0  0  0
    2.4294    1.3868    4.5732 O   0  0  0  0  0  0  0  0  0  0  0  0
    3.0815    0.9059    5.7517 C   0  0  0  0  0  0  0  0  0  0  0  0
    3.3251    1.7181    6.8057 C   0  0  0  0  0  0  0  0  0  0  0  0
    3.9592    1.2614    7.9705 O   0  0  0  0  0  0  0  0  0  0  0  0
    4.4442   -0.0502    8.0463 C   0  0  0  0  0  0  0  0  0  0  0  0
    4.2105   -0.9342    7.0573 C   0  0  0  0  0  0  0  0  0  0  0  0
    3.4171   -0.5722    5.8307 C   0  0  0  0  0  0  0  0  0  0  0  0
    4.7801   -2.3355    7.0923 C   0  0  3  0  0  0  0  0  0  0  0  0
    5.6874   -2.4310    6.0086 O   0  0  0  0  0  0  0  0  0  0  0  0
    6.4477   -3.5511    5.8778 C   0  0  0  0  0  0  0  0  0  0  0  0
    7.0187   -3.7867    4.8233 O   0  0  0  0  0  0  0  0  0  0  0  0
    6.5296   -4.3516    6.9654 O   0  0  0  0  0  0  0  0  0  0  0  0
    6.1264   -3.9657    8.2766 C   0  0  3  0  0  0  0  0  0  0  0  0
    5.5655   -2.5884    8.3186 C   0  0  0  0  0  0  0  0  0  0  0  0
    5.7293   -1.6682    9.2930 C   0  0  0  0  0  0  0  0  0  0  0  0
    5.1756   -0.4020    9.1635 O   0  3  0  0  0  0  0  0  0  0  0  0
    6.5082   -1.9095   10.5294 C   0  0  0  0  0  0  0  0  0  0  0  0
    7.9046   -1.5996   10.5887 O   0  0  0  0  0  0  0  0  0  0  0  0
    6.9591   -0.8008   11.3266 O   0  0  0  0  0  0  0  0  0  0  0  0
    5.0669   -4.7956    8.7074 O   0  0  0  0  0  0  0  0  0  0  0  0
    2.9800    3.1661    6.8609 C   0  0  0  0  0  0  0  0  0  0  0  0
    1.7273    3.5580    7.3392 C   0  0  0  0  0  0  0  0  0  0  0  0
    1.4252    4.8561    7.4903 N   0  3  0  0  0  0  0  0  0  0  0  0
    0.2130    5.2014    7.9675 F   0  0  0  0  0  0  0  0  0  0  0  0
    2.2854    5.8191    7.2240 N   0  0  0  0  0  0  0  0  0  0  0  0
    3.5153    5.5189    6.8021 C   0  0  0  0  0  0  0  0  0  0  0  0
    3.9136    4.1859    6.5694 C   0  0  0  0  0  0  0  0  0  0  0  0
    5.2318    3.9489    6.1181 C   0  0  0  0  0  0  0  0  0  0  0  0
    6.1574    4.9995    6.0184 C   0  0  0  0  0  0  0  0  0  0  0  0
    7.5585    4.7080    5.7127 C   0  0  0  0  0  0  0  0  0  0  0  0
    7.8979    3.5653    5.4500 O   0  0  0  0  0  0  0  0  0  0  0  0
    8.5279    5.8647    5.7914 C   0  0  0  0  0  0  0  0  0  0  0  0
    9.5986    5.8076    5.2103 O   0  0  0  0  0  0  0  0  0  0  0  0
    8.0451    7.0155    6.6470 C   0  0  1  0  0  0  0  0  0  0  0  0
    6.6620    7.3422    6.3929 O   0  0  0  0  0  0  0  0  0  0  0  0
    5.7851    6.2976    6.3144 C   0  0  0  0  0  0  0  0  0  0  0  0
    4.4521    6.5433    6.6458 C   0  0  0  0  0  0  0  0  0  0  0  0
    4.0759    7.8012    6.9235 F   0  0  0  0  0  0  0  0  0  0  0  0
    8.3569    6.7948    8.1110 C   0  0  1  0  0  0  0  0  0  0  0  0
    9.7489    6.6588    8.4468 O   0  0  0  0  0  0  0  0  0  0  0  0
    7.5614    7.5443    9.0438 O   0  0  0  0  0  0  0  0  0  0  0  0
    7.4385    6.2144    9.0757 C   0  0  0  0  0  0  0  0  0  0  0  0
    6.4784    5.4697    8.9571 O   0  0  0  0  0  0  0  0  0  0  0  0
    2.0376    1.5417    2.2411 C   0  0  0  0  0  0  0  0  0  0  0  0
    0.9267    1.9857    2.4273 O   0  0  0  0  0  0  0  0  0  0  0  0
    2.7412    1.4883    0.9194 C   0  0  0  0  0  0  0  0  0  0  0  0
    2.7231    2.4583    0.1884 O   0  0  0  0  0  0  0  0  0  0  0  0
    3.6708    0.3319    0.6661 C   0  0  0  0  0  0  0  0  0  0  0  0
    3.8303   -0.1553   -0.4334 O   0  0  0  0  0  0  0  0  0  0  0  0
  1  2  1  0  0  0  0
  2  3  2  0  0  0  0
  3  4  1  0  0  0  0
  3 53  1  0  0  0  0
  4  5  2  0  0  0  0
  5  6  1  0  0  0  0
  5 49  1  0  0  0  0
  6  7  1  0  0  0  0
  7  8  2  0  0  0  0
  7 12  1  0  0  0  0
  8  9  1  0  0  0  0
  8 26  1  0  0  0  0
  9 10  1  0  0  0  0
 10 11  2  0  0  0  0
 10 21  1  0  0  0  0
 11 12  1  0  0  0  0
 11 13  1  0  0  0  0
 13 14  1  0  0  0  0
 13 19  1  0  0  0  0
 14 15  1  0  0  0  0
 15 16  2  0  0  0  0
 15 17  1  0  0  0  0
 17 18  1  0  0  0  0
 18 19  1  0  0  0  0
 18 25  1  0  0  0  0
 19 20  2  0  0  0  0
 20 21  1  0  0  0  0
 20 22  1  0  0  0  0
 22 23  1  0  0  0  0
 22 24  1  0  0  0  0
 23 24  1  0  0  0  0
 26 27  2  0  0  0  0
 26 32  1  0  0  0  0
 27 28  1  0  0  0  0
 28 29  1  0  0  0  0
 28 30  2  0  0  0  0
 30 31  1  0  0  0  0
 31 32  2  0  0  0  0
 31 42  1  0  0  0  0
 32 33  1  0  0  0  0
 33 34  2  0  0  0  0
 34 35  1  0  0  0  0
 34 41  1  0  0  0  0
 35 36  2  0  0  0  0
 35 37  1  0  0  0  0
 37 38  2  0  0  0  0
 39 37  1  6  0  0  0
 39 40  1  0  0  0  0
 39 44  1  0  0  0  0
 40 41  1  0  0  0  0
 41 42  2  0  0  0  0
 42 43  1  0  0  0  0
 44 45  1  1  0  0  0
 44 46  1  0  0  0  0
 44 47  1  0  0  0  0
 46 47  1  0  0  0  0
 47 48  2  0  0  0  0
 49 50  2  0  0  0  0
 49 51  1  0  0  0  0
 51 52  2  0  0  0  0
 51 53  1  0  0  0  0
 53 54  2  0  0  0  0
M  CHG  3   4   1  21   1  28   1
M  END
$$$$