
 OpenBabel11212020283D

 55 63  0  0  1  0  0  0  0  0999 V2000
    1.4390   -0.3660    2.3412 C   0  0  0  0  0  0  0  0  0  0  0  0
    2.8736   -0.6073    1.9990 C   0  0  0  0  0  0  0  0  0  0  0  0
    3.9161    0.0272    2.5620 C   0  0  0  0  0  0  0  0  0  0  0  0
    5.3579   -0.2100    2.2489 C   0  0  0  0  0  0  0  0  0  0  0  0
    6.2978   -0.0383    3.2991 C   0  0  0  0  0  0  0  0  0  0  0  0
    5.8270    0.2865    4.5482 O   0  0  0  0  0  0  0  0  0  0  0  0
    6.6793    0.0104    5.6703 C   0  0  2  0  0  0  0  0  0  0  0  0
    8.1229    0.3829    5.4635 C   0  0  0  0  0  0  0  0  0  0  0  0
    8.8625    0.8312    6.3274 O   0  0  0  0  0  0  0  0  0  0  0  0
    8.6469    0.0629    4.0886 C   0  0  0  0  0  0  0  0  0  0  0  0
    9.8458    0.0074    3.8605 O   0  0  0  0  0  0  0  0  0  0  0  0
    7.6538   -0.1897    3.0394 C   0  0  0  0  0  0  0  0  0  0  0  0
    8.0915   -0.5747    1.7762 C   0  0  0  0  0  0  0  0  0  0  0  0
    7.1716   -0.7775    0.7289 C   0  0  0  0  0  0  0  0  0  0  0  0
    5.8002   -0.5620    0.9414 C   0  0  0  0  0  0  0  0  0  0  0  0
    4.9437   -0.6832   -0.0875 N   0  0  0  0  0  0  0  0  0  0  0  0
    5.4054   -1.0516   -1.2883 C   0  0  0  0  0  0  0  0  0  0  0  0
    4.5104   -1.1572   -2.2794 F   0  0  0  0  0  0  0  0  0  0  0  0
    6.6770   -1.3080   -1.5834 N   0  0  0  0  0  0  0  0  0  0  0  0
    7.5454   -1.1703   -0.5671 C   0  0  0  0  0  0  0  0  0  0  0  0
    8.9532   -1.3777   -0.9540 C   0  0  0  0  0  0  0  0  0  0  0  0
    9.5809   -2.5762   -0.9324 C   0  0  0  0  0  0  0  0  0  0  0  0
    8.9400   -3.7250   -0.4783 O   0  0  0  0  0  0  0  0  0  0  0  0
    9.7595   -4.7384    0.1325 C   0  0  1  0  0  0  0  0  0  0  0  0
   10.4325   -4.2121    1.2863 O   0  0  0  0  0  0  0  0  0  0  0  0
   11.2941   -5.1220    1.8784 C   0  0  0  0  0  0  0  0  0  0  0  0
   12.4582   -4.7260    2.4044 C   0  0  0  0  0  0  0  0  0  0  0  0
   12.9081   -3.4312    2.4037 O   0  0  0  0  0  0  0  0  0  0  0  0
   10.9128   -6.5556    1.9906 C   0  0  0  0  0  0  0  0  0  0  0  0
   11.6496   -7.4568    2.3417 O   0  0  0  0  0  0  0  0  0  0  0  0
    9.4775   -6.7970    1.5838 C   0  0  0  0  0  0  0  0  0  0  0  0
    8.7997   -7.6199    2.1770 O   0  0  0  0  0  0  0  0  0  0  0  0
    8.8876   -5.9428    0.4862 C   0  0  0  0  0  0  0  0  0  0  0  0
    7.8509   -6.2695   -0.0721 O   0  0  0  0  0  0  0  0  0  0  0  0
   10.9931   -2.6863   -1.4645 C   0  0  0  0  0  0  0  0  0  0  0  0
   11.6098   -1.3573   -1.7327 C   0  0  0  0  0  0  0  0  0  0  0  0
   10.9281   -0.2062   -1.6438 C   0  0  0  0  0  0  0  0  0  0  0  0
    9.5770   -0.1931   -1.3405 O   0  0  0  0  0  0  0  0  0  0  0  0
   11.5423    1.0084   -1.8167 N   0  0  0  0  0  0  0  0  0  0  0  0
   12.8967    1.1528   -2.0839 C   0  0  0  0  0  0  0  0  0  0  0  0
   13.3957    2.5419   -2.1922 C   0  0  0  0  0  0  0  0  0  0  0  0
   14.0143    3.0399   -3.3883 O   0  0  0  0  0  0  0  0  0  0  0  0
   12.7195    3.5284   -2.9888 O   0  0  0  0  0  0  0  0  0  0  0  0
   13.6640    0.0514   -2.2074 C   0  0  0  0  0  0  0  0  0  0  0  0
   13.0628   -1.2889   -2.0418 C   0  0  0  0  0  0  0  0  0  0  0  0
   13.7623   -2.3710   -2.1365 N   0  0  0  0  0  0  0  0  0  0  0  0
   15.1138   -2.2750   -2.4044 C   0  0  0  0  0  0  0  0  0  0  0  0
   15.7552   -3.3139   -2.4907 O   0  0  0  0  0  0  0  0  0  0  0  0
   15.7742   -1.0730   -2.5704 N   0  0  0  0  0  0  0  0  0  0  0  0
   15.1000    0.0212   -2.4824 C   0  0  0  0  0  0  0  0  0  0  0  0
    6.5509   -1.4226    6.1056 C   0  0  1  0  0  0  0  0  0  0  0  0
    6.8979   -2.4382    5.1373 O   0  0  0  0  0  0  0  0  0  0  0  0
    7.0127   -1.7220    7.4271 O   0  0  0  0  0  0  0  0  0  0  0  0
    5.6862   -1.7886    7.2194 C   0  0  0  0  0  0  0  0  0  0  0  0
    4.7779   -1.2155    7.7796 O   0  0  0  0  0  0  0  0  0  0  0  0
  1  2  1  0  0  0  0
  2  3  2  0  0  0  0
  3  4  1  0  0  0  0
  4  5  2  0  0  0  0
  4 15  1  0  0  0  0
  5  6  1  0  0  0  0
  5 12  1  0  0  0  0
  7  6  1  6  0  0  0
  7  8  1  0  0  0  0
  7 51  1  0  0  0  0
  8  9  2  0  0  0  0
  8 10  1  0  0  0  0
 10 11  2  0  0  0  0
 10 12  1  0  0  0  0
 12 13  2  0  0  0  0
 13 14  1  0  0  0  0
 14 15  2  0  0  0  0
 14 20  1  0  0  0  0
 15 16  1  0  0  0  0
 16 17  2  0  0  0  0
 17 18  1  0  0  0  0
 17 19  1  0  0  0  0
 19 20  2  0  0  0  0
 20 21  1  0  0  0  0
 21 22  2  0  0  0  0
 21 38  1  0  0  0  0
 22 23  1  0  0  0  0
 22 35  1  0  0  0  0
 24 23  1  1  0  0  0
 24 25  1  0  0  0  0
 24 33  1  0  0  0  0
 25 26  1  0  0  0  0
 26 27  2  0  0  0  0
 26 29  1  0  0  0  0
 27 28  1  0  0  0  0
 29 30  2  0  0  0  0
 29 31  1  0  0  0  0
 31 32  2  0  0  0  0
 31 33  1  0  0  0  0
 33 34  2  0  0  0  0
 35 36  1  0  0  0  0
 36 37  2  0  0  0  0
 36 45  1  0  0  0  0
 37 38  1  0  0  0  0
 37 39  1  0  0  0  0
 39 40  1  0  0  0  0
 40 41  1  0  0  0  0
 40 44  2  0  0  0  0
 41 42  1  0  0  0  0
 41 43  1  0  0  0  0
 42 43  1  0  0  0  0
 44 45  1  0  0  0  0
 44 50  1  0  0  0  0
 45 46  2  0  0  0  0
 46 47  1  0  0  0  0
 47 48  2  0  0  0  0
 47 49  1  0  0  0  0
 49 50  2  0  0  0  0
 51 52  1  6  0  0  0
 51 53  1  0  0  0  0
 51 54  1  0  0  0  0
 53 54  1  0  0  0  0
 54 55  2  0  0  0  0
M  END
$$$$