
 OpenBabel11212021133D

 53 61  0  0  1  0  0  0  0  0999 V2000
    6.0491    4.5839   -6.8002 O   0  0  0  0  0  0  0  0  0  0  0  0
    5.5466    3.3388   -7.0794 C   0  0  0  0  0  0  0  0  0  0  0  0
    4.7475    2.6661   -6.2398 C   0  0  0  0  0  0  0  0  0  0  0  0
    4.4190    3.1787   -4.9951 O   0  0  0  0  0  0  0  0  0  0  0  0
    3.0875    2.9035   -4.5552 C   0  0  2  0  0  0  0  0  0  0  0  0
    2.7751    3.5874   -3.3195 O   0  0  0  0  0  0  0  0  0  0  0  0
    2.7319    4.9862   -3.3485 C   0  0  0  0  0  0  0  0  0  0  0  0
    2.4324    5.7374   -2.2505 C   0  0  0  0  0  0  0  0  0  0  0  0
    2.3820    7.1390   -2.3058 O   0  0  0  0  0  0  0  0  0  0  0  0
    2.5439    7.7987   -3.5197 C   0  0  0  0  0  0  0  0  0  0  0  0
    2.8165    7.1233   -4.6406 C   0  0  0  0  0  0  0  0  0  0  0  0
    3.0022    5.6628   -4.6730 C   0  0  0  0  0  0  0  0  0  0  0  0
    2.9059    7.8526   -5.9305 C   0  0  0  0  0  0  0  0  0  0  0  0
    3.0754    7.2047   -7.0403 N   0  0  0  0  0  0  0  0  0  0  0  0
    3.1269    7.9515   -8.1801 C   0  0  0  0  0  0  0  0  0  0  0  0
    3.2125    7.2688   -9.2608 N   0  0  0  0  0  0  0  0  0  0  0  0
    3.0846    9.3080   -8.2884 N   0  0  0  0  0  0  0  0  0  0  0  0
    2.9172    9.9741   -7.1954 C   0  0  0  0  0  0  0  0  0  0  0  0
    2.7743    9.3260   -5.8834 C   0  0  0  0  0  0  0  0  0  0  0  0
    2.5380    9.9300   -4.7001 C   0  0  0  0  0  0  0  0  0  0  0  0
    2.3898    9.1626   -3.5439 N   0  0  0  0  0  0  0  0  0  0  0  0
    2.4115   11.3929   -4.5229 C   0  0  0  0  0  0  0  0  0  0  0  0
    3.2603   12.1063   -3.6091 O   0  0  0  0  0  0  0  0  0  0  0  0
    3.3912   12.3137   -5.0274 O   0  0  0  0  0  0  0  0  0  0  0  0
    2.0064    5.1721   -0.9287 C   0  0  0  0  0  0  0  0  0  0  0  0
    1.3337    4.0046   -1.0519 N   0  0  0  0  0  0  0  0  0  0  0  0
    0.8449    3.4081    0.0154 N   0  3  0  0  0  0  0  0  0  0  0  0
    0.1726    2.2531   -0.1476 F   0  0  0  0  0  0  0  0  0  0  0  0
    0.9705    3.9166    1.2413 C   0  0  0  0  0  0  0  0  0  0  0  0
    1.6290    5.1192    1.4473 C   0  0  0  0  0  0  0  0  0  0  0  0
    2.1737    5.8040    0.3434 C   0  0  0  0  0  0  0  0  0  0  0  0
    2.8184    7.0426    0.6462 C   0  0  0  0  0  0  0  0  0  0  0  0
    2.8926    7.5487    1.9656 C   0  0  0  0  0  0  0  0  0  0  0  0
    3.5232    8.8466    2.2374 C   0  0  0  0  0  0  0  0  0  0  0  0
    4.0888    9.4832    1.3663 O   0  0  0  0  0  0  0  0  0  0  0  0
    3.3892    9.3613    3.6511 C   0  0  0  0  0  0  0  0  0  0  0  0
    3.2460   10.5543    3.8693 O   0  0  0  0  0  0  0  0  0  0  0  0
    3.3632    8.2716    4.6939 C   0  0  1  0  0  0  0  0  0  0  0  0
    2.4509    7.2097    4.3465 O   0  0  0  0  0  0  0  0  0  0  0  0
    2.3682    6.8373    3.0327 C   0  0  0  0  0  0  0  0  0  0  0  0
    1.7353    5.6301    2.7541 C   0  0  0  0  0  0  0  0  0  0  0  0
    1.2142    4.9165    3.7654 F   0  0  0  0  0  0  0  0  0  0  0  0
    4.7486    7.7799    5.0329 C   0  0  1  0  0  0  0  0  0  0  0  0
    5.6642    8.7650    5.5490 O   0  0  0  0  0  0  0  0  0  0  0  0
    4.8222    6.5032    5.6899 O   0  0  0  0  0  0  0  0  0  0  0  0
    5.3391    6.5828    4.4491 C   0  0  0  0  0  0  0  0  0  0  0  0
    5.0905    5.9644    3.4436 O   0  0  0  0  0  0  0  0  0  0  0  0
    2.9559    1.4015   -4.4157 C   0  0  0  0  0  0  0  0  0  0  0  0
    2.6291    0.7863   -3.4128 O   0  0  0  0  0  0  0  0  0  0  0  0
    3.2213    0.7231   -5.7365 C   0  0  0  0  0  0  0  0  0  0  0  0
    2.5062   -0.1989   -6.0927 O   0  0  0  0  0  0  0  0  0  0  0  0
    4.2601    1.3224   -6.6677 C   0  0  0  0  0  0  0  0  0  0  0  0
    4.6210    0.7533   -7.6830 O   0  0  0  0  0  0  0  0  0  0  0  0
  1  2  1  0  0  0  0
  2  3  2  0  0  0  0
  3  4  1  0  0  0  0
  3 52  1  0  0  0  0
  4  5  1  0  0  0  0
  5  6  1  1  0  0  0
  5 48  1  0  0  0  0
  6  7  1  0  0  0  0
  7  8  2  0  0  0  0
  7 12  1  0  0  0  0
  8  9  1  0  0  0  0
  8 25  1  0  0  0  0
  9 10  1  0  0  0  0
 10 11  2  0  0  0  0
 10 21  1  0  0  0  0
 11 12  1  0  0  0  0
 11 13  1  0  0  0  0
 13 14  2  0  0  0  0
 13 19  1  0  0  0  0
 14 15  1  0  0  0  0
 15 16  2  0  0  0  0
 15 17  1  0  0  0  0
 17 18  2  0  0  0  0
 18 19  1  0  0  0  0
 19 20  2  0  0  0  0
 20 21  1  0  0  0  0
 20 22  1  0  0  0  0
 22 23  1  0  0  0  0
 22 24  1  0  0  0  0
 23 24  1  0  0  0  0
 25 26  2  0  0  0  0
 25 31  1  0  0  0  0
 26 27  1  0  0  0  0
 27 28  1  0  0  0  0
 27 29  2  0  0  0  0
 29 30  1  0  0  0  0
 30 31  2  0  0  0  0
 30 41  1  0  0  0  0
 31 32  1  0  0  0  0
 32 33  2  0  0  0  0
 33 34  1  0  0  0  0
 33 40  1  0  0  0  0
 34 35  2  0  0  0  0
 34 36  1  0  0  0  0
 36 37  2  0  0  0  0
 38 36  1  6  0  0  0
 38 39  1  0  0  0  0
 38 43  1  0  0  0  0
 39 40  1  0  0  0  0
 40 41  2  0  0  0  0
 41 42  1  0  0  0  0
 43 44  1  1  0  0  0
 43 45  1  0  0  0  0
 43 46  1  0  0  0  0
 45 46  1  0  0  0  0
 46 47  2  0  0  0  0
 48 49  2  0  0  0  0
 48 50  1  0  0  0  0
 50 51  2  0  0  0  0
 50 52  1  0  0  0  0
 52 53  2  0  0  0  0
M  CHG  1  27   1
M  END
$$$$