
 OpenBabel11212017293D

 55 63  0  0  1  0  0  0  0  0999 V2000
    7.2467   -2.0085    4.5330 O   0  0  0  0  0  0  0  0  0  0  0  0
    6.9566   -0.7455    4.0776 C   0  0  0  0  0  0  0  0  0  0  0  0
    5.7307   -0.3882    3.6783 C   0  0  0  0  0  0  0  0  0  0  0  0
    4.7084   -1.3165    3.6725 O   0  0  0  0  0  0  0  0  0  0  0  0
    3.4425   -0.8001    4.0412 C   0  0  2  0  0  0  0  0  0  0  0  0
    2.4320   -1.8246    3.9086 O   0  0  0  0  0  0  0  0  0  0  0  0
    2.5837   -2.9893    4.6519 C   0  0  0  0  0  0  0  0  0  0  0  0
    2.1126   -4.1817    4.2091 C   0  0  0  0  0  0  0  0  0  0  0  0
    2.2875   -5.3651    4.9506 O   0  0  0  0  0  0  0  0  0  0  0  0
    2.9286   -5.3280    6.1991 C   0  0  0  0  0  0  0  0  0  0  0  0
    3.3086   -4.1581    6.7424 C   0  0  0  0  0  0  0  0  0  0  0  0
    3.1875   -2.8569    6.0215 C   0  0  0  0  0  0  0  0  0  0  0  0
    3.9138   -4.0598    8.1111 C   0  0  3  0  0  0  0  0  0  0  0  0
    2.9803   -3.3701    8.9227 O   0  0  0  0  0  0  0  0  0  0  0  0
    3.2656   -3.2282   10.2448 C   0  0  0  0  0  0  0  0  0  0  0  0
    2.6648   -2.4232   10.9368 O   0  0  0  0  0  0  0  0  0  0  0  0
    4.2346   -4.0365   10.7368 O   0  0  0  0  0  0  0  0  0  0  0  0
    4.7150   -5.2004   10.0714 C   0  0  3  0  0  0  0  0  0  0  0  0
    4.1072   -5.3853    8.7276 C   0  0  0  0  0  0  0  0  0  0  0  0
    3.7553   -6.5396    8.1187 C   0  0  0  0  0  0  0  0  0  0  0  0
    3.1490   -6.5198    6.8644 O   0  3  0  0  0  0  0  0  0  0  0  0
    3.9531   -7.8730    8.7328 C   0  0  0  0  0  0  0  0  0  0  0  0
    2.9279   -8.4674    9.5381 O   0  0  0  0  0  0  0  0  0  0  0  0
    3.2358   -9.0172    8.2421 O   0  0  0  0  0  0  0  0  0  0  0  0
    6.0993   -5.0468    9.8274 O   0  0  0  0  0  0  0  0  0  0  0  0
    1.3273   -4.3120    2.9308 C   0  0  0  0  0  0  0  0  0  0  0  0
    0.4523   -3.2694    2.5990 C   0  0  0  0  0  0  0  0  0  0  0  0
   -0.2478   -3.2715    1.4639 N   0  3  0  0  0  0  0  0  0  0  0  0
   -1.0448   -2.2218    1.1856 F   0  0  0  0  0  0  0  0  0  0  0  0
   -0.1954   -4.2645    0.6056 N   0  0  0  0  0  0  0  0  0  0  0  0
    0.5787   -5.3190    0.8611 C   0  0  0  0  0  0  0  0  0  0  0  0
    1.3703   -5.4109    2.0294 C   0  0  0  0  0  0  0  0  0  0  0  0
    2.1387   -6.5913    2.1935 C   0  0  0  0  0  0  0  0  0  0  0  0
    2.1150   -7.6282    1.2421 C   0  0  0  0  0  0  0  0  0  0  0  0
    2.8756   -8.8538    1.4745 C   0  0  0  0  0  0  0  0  0  0  0  0
    3.3537   -9.0613    2.5812 O   0  0  0  0  0  0  0  0  0  0  0  0
    3.0079   -9.8278    0.3219 C   0  0  0  0  0  0  0  0  0  0  0  0
    3.5849  -10.8905    0.4985 O   0  0  0  0  0  0  0  0  0  0  0  0
    2.4209   -9.3600   -0.9988 C   0  0  1  0  0  0  0  0  0  0  0  0
    1.2982   -8.4669   -0.8781 O   0  0  0  0  0  0  0  0  0  0  0  0
    1.3539   -7.5177    0.0995 C   0  0  0  0  0  0  0  0  0  0  0  0
    0.5921   -6.3623   -0.0672 C   0  0  0  0  0  0  0  0  0  0  0  0
   -0.1530   -6.2385   -1.1777 F   0  0  0  0  0  0  0  0  0  0  0  0
    3.4807   -8.8321   -1.9401 C   0  0  1  0  0  0  0  0  0  0  0  0
    4.5243   -9.7475   -2.3164 O   0  0  0  0  0  0  0  0  0  0  0  0
    3.0131   -7.9892   -3.0064 O   0  0  0  0  0  0  0  0  0  0  0  0
    3.7878   -7.4181   -2.0765 C   0  0  0  0  0  0  0  0  0  0  0  0
    3.5912   -6.4761   -1.3261 O   0  0  0  0  0  0  0  0  0  0  0  0
    3.0838    0.3617    3.1270 C   0  0  0  0  0  0  0  0  0  0  0  0
    2.0602    0.3610    2.4386 O   0  0  0  0  0  0  0  0  0  0  0  0
    4.0631    1.5142    3.2555 C   0  0  0  0  0  0  0  0  0  0  0  0
    5.5040    1.0235    3.2182 C   0  0  0  0  0  0  0  0  0  0  0  0
    6.4597    1.7376    2.9207 O   0  0  0  0  0  0  0  0  0  0  0  0
    3.8332    2.1371    4.4557 F   0  0  0  0  0  0  0  0  0  0  0  0
    3.8328    2.4668    2.3057 F   0  0  0  0  0  0  0  0  0  0  0  0
  1  2  1  0  0  0  0
  2  3  2  0  0  0  0
  3  4  1  0  0  0  0
  3 52  1  0  0  0  0
  4  5  1  0  0  0  0
  5  6  1  6  0  0  0
  5 49  1  0  0  0  0
  6  7  1  0  0  0  0
  7  8  2  0  0  0  0
  7 12  1  0  0  0  0
  8  9  1  0  0  0  0
  8 26  1  0  0  0  0
  9 10  1  0  0  0  0
 10 11  2  0  0  0  0
 10 21  1  0  0  0  0
 11 12  1  0  0  0  0
 11 13  1  0  0  0  0
 13 14  1  0  0  0  0
 13 19  1  0  0  0  0
 14 15  1  0  0  0  0
 15 16  2  0  0  0  0
 15 17  1  0  0  0  0
 17 18  1  0  0  0  0
 18 19  1  0  0  0  0
 18 25  1  0  0  0  0
 19 20  2  0  0  0  0
 20 21  1  0  0  0  0
 20 22  1  0  0  0  0
 22 23  1  0  0  0  0
 22 24  1  0  0  0  0
 23 24  1  0  0  0  0
 26 27  2  0  0  0  0
 26 32  1  0  0  0  0
 27 28  1  0  0  0  0
 28 29  1  0  0  0  0
 28 30  2  0  0  0  0
 30 31  1  0  0  0  0
 31 32  2  0  0  0  0
 31 42  1  0  0  0  0
 32 33  1  0  0  0  0
 33 34  2  0  0  0  0
 34 35  1  0  0  0  0
 34 41  1  0  0  0  0
 35 36  2  0  0  0  0
 35 37  1  0  0  0  0
 37 38  2  0  0  0  0
 39 37  1  1  0  0  0
 39 40  1  0  0  0  0
 39 44  1  0  0  0  0
 40 41  1  0  0  0  0
 41 42  2  0  0  0  0
 42 43  1  0  0  0  0
 44 45  1  6  0  0  0
 44 46  1  0  0  0  0
 44 47  1  0  0  0  0
 46 47  1  0  0  0  0
 47 48  2  0  0  0  0
 49 50  2  0  0  0  0
 49 51  1  0  0  0  0
 51 52  1  0  0  0  0
 51 54  1  0  0  0  0
 51 55  1  0  0  0  0
 52 53  2  0  0  0  0
M  CHG  2  21   1  28   1
M  END
$$$$