
 OpenBabel11212017263D

 54 62  0  0  1  0  0  0  0  0999 V2000
    4.9214    3.7048    0.8150 O   0  0  0  0  0  0  0  0  0  0  0  0
    3.6818    3.2708    1.2137 C   0  0  0  0  0  0  0  0  0  0  0  0
    2.7020    2.9880    0.3454 C   0  0  0  0  0  0  0  0  0  0  0  0
    2.9219    3.1383   -1.0073 O   0  0  0  0  0  0  0  0  0  0  0  0
    2.0057    2.4861   -1.8713 C   0  0  2  0  0  0  0  0  0  0  0  0
    2.3067    2.7595   -3.2532 O   0  0  0  0  0  0  0  0  0  0  0  0
    2.3109    4.0645   -3.7324 C   0  0  0  0  0  0  0  0  0  0  0  0
    2.6040    4.3260   -5.0254 C   0  0  0  0  0  0  0  0  0  0  0  0
    2.6165    5.6161   -5.5620 O   0  0  0  0  0  0  0  0  0  0  0  0
    2.3951    6.7079   -4.7248 C   0  0  0  0  0  0  0  0  0  0  0  0
    2.1164    6.5438   -3.4226 C   0  0  0  0  0  0  0  0  0  0  0  0
    1.9879    5.1979   -2.8012 C   0  0  0  0  0  0  0  0  0  0  0  0
    1.9078    7.6881   -2.4815 C   0  0  3  0  0  0  0  0  0  0  0  0
    2.9329    7.6268   -1.5036 O   0  0  0  0  0  0  0  0  0  0  0  0
    2.9097    8.5781   -0.5358 C   0  0  0  0  0  0  0  0  0  0  0  0
    3.5095    8.4427    0.5175 O   0  0  0  0  0  0  0  0  0  0  0  0
    2.1660    9.6741   -0.8215 O   0  0  0  0  0  0  0  0  0  0  0  0
    1.9222   10.0829   -2.1627 C   0  0  3  0  0  0  0  0  0  0  0  0
    2.0751    8.9882   -3.1570 C   0  0  0  0  0  0  0  0  0  0  0  0
    2.3403    9.1012   -4.4791 C   0  0  0  0  0  0  0  0  0  0  0  0
    2.4830    7.9649   -5.2698 O   0  3  0  0  0  0  0  0  0  0  0  0
    2.5089   10.3978   -5.1747 C   0  0  0  0  0  0  0  0  0  0  0  0
    3.7426   10.7120   -5.8356 O   0  0  0  0  0  0  0  0  0  0  0  0
    2.5551   10.4590   -6.6104 O   0  0  0  0  0  0  0  0  0  0  0  0
    0.5690   10.4778   -2.2688 O   0  0  0  0  0  0  0  0  0  0  0  0
    2.9761    3.2679   -5.9897 C   0  0  0  0  0  0  0  0  0  0  0  0
    4.3322    2.9697   -6.1223 C   0  0  0  0  0  0  0  0  0  0  0  0
    4.6993    1.9756   -7.0015 C   0  0  0  0  0  0  0  0  0  0  0  0
    6.0024    1.6965   -7.1381 F   0  0  0  0  0  0  0  0  0  0  0  0
    3.8301    1.2676   -7.7409 N   0  0  0  0  0  0  0  0  0  0  0  0
    2.5146    1.5104   -7.6046 C   0  0  0  0  0  0  0  0  0  0  0  0
    2.0282    2.5265   -6.7425 C   0  0  0  0  0  0  0  0  0  0  0  0
    0.6347    2.7397   -6.6624 C   0  0  0  0  0  0  0  0  0  0  0  0
   -0.2531    1.9226   -7.3672 C   0  0  0  0  0  0  0  0  0  0  0  0
   -1.6933    2.1155   -7.2340 C   0  0  0  0  0  0  0  0  0  0  0  0
   -2.1647    3.1829   -6.8781 O   0  0  0  0  0  0  0  0  0  0  0  0
   -2.5541    0.9031   -7.4860 C   0  0  0  0  0  0  0  0  0  0  0  0
   -3.6639    0.8141   -6.9732 O   0  0  0  0  0  0  0  0  0  0  0  0
   -1.8824   -0.2352   -8.2297 C   0  0  1  0  0  0  0  0  0  0  0  0
   -0.6199    0.0465   -8.8472 O   0  0  0  0  0  0  0  0  0  0  0  0
    0.2080    0.9030   -8.1760 C   0  0  0  0  0  0  0  0  0  0  0  0
    1.5873    0.7370   -8.3137 C   0  0  0  0  0  0  0  0  0  0  0  0
    2.0308   -0.2363   -9.1285 F   0  0  0  0  0  0  0  0  0  0  0  0
   -1.8429   -1.4517   -7.3286 C   0  0  1  0  0  0  0  0  0  0  0  0
   -3.1186   -1.9730   -6.8879 O   0  0  0  0  0  0  0  0  0  0  0  0
   -0.8343   -2.4308   -7.6263 O   0  0  0  0  0  0  0  0  0  0  0  0
   -0.7163   -1.7643   -6.4756 C   0  0  0  0  0  0  0  0  0  0  0  0
    0.1558   -1.0499   -6.0064 O   0  0  0  0  0  0  0  0  0  0  0  0
    0.5481    2.7727   -1.4928 C   0  0  0  0  0  0  0  0  0  0  0  0
   -0.2962    3.1376   -2.3157 O   0  0  0  0  0  0  0  0  0  0  0  0
    0.2015    2.5118   -0.0546 C   0  0  3  0  0  0  0  0  0  0  0  0
    1.3718    2.5774    0.8969 C   0  0  0  0  0  0  0  0  0  0  0  0
    1.2394    2.3205    2.0934 O   0  0  0  0  0  0  0  0  0  0  0  0
   -0.8034    3.3439    0.3584 F   0  0  0  0  0  0  0  0  0  0  0  0
  1  2  1  0  0  0  0
  2  3  2  0  0  0  0
  3  4  1  0  0  0  0
  3 52  1  0  0  0  0
  4  5  1  0  0  0  0
  5  6  1  6  0  0  0
  5 49  1  0  0  0  0
  6  7  1  0  0  0  0
  7  8  2  0  0  0  0
  7 12  1  0  0  0  0
  8  9  1  0  0  0  0
  8 26  1  0  0  0  0
  9 10  1  0  0  0  0
 10 11  2  0  0  0  0
 10 21  1  0  0  0  0
 11 12  1  0  0  0  0
 11 13  1  0  0  0  0
 13 14  1  0  0  0  0
 13 19  1  0  0  0  0
 14 15  1  0  0  0  0
 15 16  2  0  0  0  0
 15 17  1  0  0  0  0
 17 18  1  0  0  0  0
 18 19  1  0  0  0  0
 18 25  1  0  0  0  0
 19 20  2  0  0  0  0
 20 21  1  0  0  0  0
 20 22  1  0  0  0  0
 22 23  1  0  0  0  0
 22 24  1  0  0  0  0
 23 24  1  0  0  0  0
 26 27  2  0  0  0  0
 26 32  1  0  0  0  0
 27 28  1  0  0  0  0
 28 29  1  0  0  0  0
 28 30  2  0  0  0  0
 30 31  1  0  0  0  0
 31 32  2  0  0  0  0
 31 42  1  0  0  0  0
 32 33  1  0  0  0  0
 33 34  2  0  0  0  0
 34 35  1  0  0  0  0
 34 41  1  0  0  0  0
 35 36  2  0  0  0  0
 35 37  1  0  0  0  0
 37 38  2  0  0  0  0
 39 37  1  1  0  0  0
 39 40  1  0  0  0  0
 39 44  1  0  0  0  0
 40 41  1  0  0  0  0
 41 42  2  0  0  0  0
 42 43  1  0  0  0  0
 44 45  1  1  0  0  0
 44 46  1  0  0  0  0
 44 47  1  0  0  0  0
 46 47  1  0  0  0  0
 47 48  2  0  0  0  0
 49 50  2  0  0  0  0
 49 51  1  0  0  0  0
 51 52  1  0  0  0  0
 51 54  1  0  0  0  0
 52 53  2  0  0  0  0
M  CHG  1  21   1
M  END
$$$$