
 OpenBabel10202002013D

 57 66  0  0  1  0  0  0  0  0999 V2000
   -3.0909    6.4579    5.4633 O   0  0  0  0  0  0  0  0  0  0  0  0
   -3.4637    5.9192    4.2597 C   0  0  0  0  0  0  0  0  0  0  0  0
   -2.5993    5.3444    3.4140 C   0  0  0  0  0  0  0  0  0  0  0  0
   -1.2432    5.2958    3.6624 O   0  0  0  0  0  0  0  0  0  0  0  0
   -0.6949    3.9870    3.4962 C   0  0  2  0  0  0  0  0  0  0  0  0
    0.7034    3.9672    3.8291 O   0  0  0  0  0  0  0  0  0  0  0  0
    1.0681    4.3010    5.1290 C   0  0  0  0  0  0  0  0  0  0  0  0
    2.3664    4.3199    5.5094 C   0  0  0  0  0  0  0  0  0  0  0  0
    2.7735    4.6493    6.8031 O   0  0  0  0  0  0  0  0  0  0  0  0
    1.8202    4.7440    7.8058 C   0  0  0  0  0  0  0  0  0  0  0  0
    0.5095    4.6928    7.5324 C   0  0  0  0  0  0  0  0  0  0  0  0
   -0.0120    4.5942    6.1468 C   0  0  0  0  0  0  0  0  0  0  0  0
   -0.4516    4.6905    8.6678 C   0  0  0  0  0  0  0  0  0  0  0  0
   -1.7200    4.5477    8.4626 N   0  0  0  0  0  0  0  0  0  0  0  0
   -2.5783    4.5180    9.5424 C   0  0  0  0  0  0  0  0  0  0  0  0
   -3.7674    4.3204    9.3253 O   0  0  0  0  0  0  0  0  0  0  0  0
   -2.1652    4.6997   10.8483 N   0  0  0  0  0  0  0  0  0  0  0  0
   -0.9071    4.8539   11.0817 C   0  0  0  0  0  0  0  0  0  0  0  0
    0.1077    4.8429   10.0286 C   0  0  0  0  0  0  0  0  0  0  0  0
    1.4411    4.9515   10.1989 C   0  0  0  0  0  0  0  0  0  0  0  0
    2.2738    4.8755    9.0921 N   0  0  0  0  0  0  0  0  0  0  0  0
    2.1159    5.1519   11.5011 C   0  0  0  0  0  0  0  0  0  0  0  0
    3.3574    5.8727   11.6045 O   0  0  0  0  0  0  0  0  0  0  0  0
    2.1458    6.4375   12.1405 O   0  0  0  0  0  0  0  0  0  0  0  0
    3.4873    3.9087    4.6385 C   0  0  0  0  0  0  0  0  0  0  0  0
    3.7835    2.5936    4.7414 N   0  0  0  0  0  0  0  0  0  0  0  0
    4.8046    2.1699    3.9968 C   0  0  0  0  0  0  0  0  0  0  0  0
    5.5538    2.9242    3.1850 N   0  0  0  0  0  0  0  0  0  0  0  0
    5.2584    4.2296    3.0867 C   0  0  0  0  0  0  0  0  0  0  0  0
    4.2080    4.8016    3.8260 C   0  0  0  0  0  0  0  0  0  0  0  0
    3.9509    6.1898    3.7217 C   0  0  0  0  0  0  0  0  0  0  0  0
    4.7049    6.9986    2.8751 C   0  0  0  0  0  0  0  0  0  0  0  0
    5.7307    6.4407    2.1156 C   0  0  0  0  0  0  0  0  0  0  0  0
    6.0093    5.0561    2.2318 C   0  0  0  0  0  0  0  0  0  0  0  0
    7.1445    4.4886    1.3987 C   0  0  0  0  0  0  0  0  0  0  0  0
    8.5302    4.9816    1.8273 C   0  0  0  0  0  0  0  0  0  0  0  0
    8.6319    6.4049    2.3983 C   0  0  0  0  0  0  0  0  0  0  0  0
    8.0115    7.5466    1.5482 C   0  0  3  0  0  0  0  0  0  0  0  0
    6.5252    7.2974    1.1508 C   0  0  0  0  0  0  0  0  0  0  0  0
    8.0897    8.9008    2.3149 C   0  0  0  0  0  0  0  0  0  0  0  0
    9.5174    9.4187    2.6003 C   0  0  1  0  0  0  0  0  0  0  0  0
   10.3513    9.4955    1.3143 C   0  0  0  0  0  0  0  0  0  0  0  0
   10.2630    8.2223    0.5198 C   0  0  0  0  0  0  0  0  0  0  0  0
   11.2205    7.6323    0.0436 O   0  0  0  0  0  0  0  0  0  0  0  0
    8.8551    7.7093    0.2879 C   0  0  0  0  0  0  0  0  0  0  0  0
    8.4844    7.4763   -0.8530 O   0  0  0  0  0  0  0  0  0  0  0  0
    9.4583   10.7668    3.2881 C   0  0  1  0  0  0  0  0  0  0  0  0
    8.7839   11.8125    2.5635 O   0  0  0  0  0  0  0  0  0  0  0  0
    9.1072   10.7132    4.6755 O   0  0  0  0  0  0  0  0  0  0  0  0
   10.3375   11.1606    4.3801 C   0  0  0  0  0  0  0  0  0  0  0  0
   11.4294   10.7716    4.7488 O   0  0  0  0  0  0  0  0  0  0  0  0
   -0.8491    3.4795    2.0688 C   0  0  0  0  0  0  0  0  0  0  0  0
   -0.1657    2.6125    1.5422 O   0  0  0  0  0  0  0  0  0  0  0  0
   -2.0403    4.0656    1.3467 C   0  0  0  0  0  0  0  0  0  0  0  0
   -2.1364    3.9794    0.1328 O   0  0  0  0  0  0  0  0  0  0  0  0
   -3.1141    4.7700    2.1474 C   0  0  0  0  0  0  0  0  0  0  0  0
   -4.2773    4.8105    1.7880 O   0  0  0  0  0  0  0  0  0  0  0  0
  1  2  1  0  0  0  0
  2  3  2  0  0  0  0
  3  4  1  0  0  0  0
  3 56  1  0  0  0  0
  4  5  1  0  0  0  0
  5  6  1  6  0  0  0
  5 52  1  0  0  0  0
  6  7  1  0  0  0  0
  7  8  2  0  0  0  0
  7 12  1  0  0  0  0
  8  9  1  0  0  0  0
  8 25  1  0  0  0  0
  9 10  1  0  0  0  0
 10 11  2  0  0  0  0
 10 21  1  0  0  0  0
 11 12  1  0  0  0  0
 11 13  1  0  0  0  0
 13 14  2  0  0  0  0
 13 19  1  0  0  0  0
 14 15  1  0  0  0  0
 15 16  2  0  0  0  0
 15 17  1  0  0  0  0
 17 18  2  0  0  0  0
 18 19  1  0  0  0  0
 19 20  2  0  0  0  0
 20 21  1  0  0  0  0
 20 22  1  0  0  0  0
 22 23  1  0  0  0  0
 22 24  1  0  0  0  0
 23 24  1  0  0  0  0
 25 26  2  0  0  0  0
 25 30  1  0  0  0  0
 26 27  1  0  0  0  0
 27 28  2  0  0  0  0
 28 29  1  0  0  0  0
 29 30  2  0  0  0  0
 29 34  1  0  0  0  0
 30 31  1  0  0  0  0
 31 32  2  0  0  0  0
 32 33  1  0  0  0  0
 33 34  2  0  0  0  0
 33 39  1  0  0  0  0
 34 35  1  0  0  0  0
 35 36  1  0  0  0  0
 36 37  1  0  0  0  0
 37 38  1  0  0  0  0
 38 39  1  0  0  0  0
 38 40  1  0  0  0  0
 38 45  1  0  0  0  0
 41 40  1  6  0  0  0
 41 42  1  0  0  0  0
 41 47  1  0  0  0  0
 42 43  1  0  0  0  0
 43 44  2  0  0  0  0
 43 45  1  0  0  0  0
 45 46  2  0  0  0  0
 47 48  1  6  0  0  0
 47 49  1  0  0  0  0
 47 50  1  0  0  0  0
 49 50  1  0  0  0  0
 50 51  2  0  0  0  0
 52 53  2  0  0  0  0
 52 54  1  0  0  0  0
 54 55  2  0  0  0  0
 54 56  1  0  0  0  0
 56 57  2  0  0  0  0
M  END
$$$$