
 OpenBabel11172005063D

 52 60  0  0  1  0  0  0  0  0999 V2000
    4.6287    6.3284    1.8415 O   0  0  0  0  0  0  0  0  0  0  0  0
    4.1353    5.7094    0.7236 C   0  0  0  0  0  0  0  0  0  0  0  0
    3.5344    4.5138    0.7574 C   0  0  0  0  0  0  0  0  0  0  0  0
    3.4234    3.7860    1.9273 O   0  0  0  0  0  0  0  0  0  0  0  0
    2.1107    3.2780    2.1486 C   0  0  2  0  0  0  0  0  0  0  0  0
    2.0799    2.4102    3.2920 O   0  0  0  0  0  0  0  0  0  0  0  0
    2.4635    2.9345    4.5159 C   0  0  0  0  0  0  0  0  0  0  0  0
    3.0481    2.1452    5.4395 C   0  0  0  0  0  0  0  0  0  0  0  0
    3.3952    2.5819    6.7075 O   0  0  0  0  0  0  0  0  0  0  0  0
    3.0453    3.8580    7.1002 C   0  0  0  0  0  0  0  0  0  0  0  0
    2.4271    4.7245    6.2768 C   0  0  0  0  0  0  0  0  0  0  0  0
    2.1100    4.3654    4.8534 C   0  0  0  0  0  0  0  0  0  0  0  0
    2.0536    6.1016    6.7776 C   0  0  3  0  0  0  0  0  0  0  0  0
    0.6634    6.2911    6.5742 O   0  0  0  0  0  0  0  0  0  0  0  0
    0.1139    7.4425    7.0400 C   0  0  0  0  0  0  0  0  0  0  0  0
   -0.9510    7.8513    6.5971 O   0  0  0  0  0  0  0  0  0  0  0  0
    0.8020    8.1332    7.9848 O   0  0  0  0  0  0  0  0  0  0  0  0
    1.8059    7.5842    8.6921 C   0  0  0  0  0  0  0  0  0  0  0  0
    2.3205    8.1670    9.6384 O   0  0  0  0  0  0  0  0  0  0  0  0
    2.3101    6.3037    8.2206 C   0  0  0  0  0  0  0  0  0  0  0  0
    2.9471    5.3959    8.9899 C   0  0  0  0  0  0  0  0  0  0  0  0
    3.3495    4.2099    8.3906 N   0  0  0  0  0  0  0  0  0  0  0  0
    3.2309    5.5280   10.4392 C   0  0  0  0  0  0  0  0  0  0  0  0
    2.2844    5.1006   11.4308 O   0  0  0  0  0  0  0  0  0  0  0  0
    3.5186    4.3786   11.2592 O   0  0  0  0  0  0  0  0  0  0  0  0
    3.3601    0.7265    5.2185 C   0  0  0  0  0  0  0  0  0  0  0  0
    4.5948    0.3951    4.6863 C   0  0  0  0  0  0  0  0  0  0  0  0
    4.9820   -0.8771    4.4953 N   0  0  0  0  0  0  0  0  0  0  0  0
    4.1358   -1.8928    4.8438 N   0  0  0  0  0  0  0  0  0  0  0  0
    2.9254   -1.6412    5.3639 C   0  0  0  0  0  0  0  0  0  0  0  0
    2.4792   -0.3223    5.5693 C   0  0  0  0  0  0  0  0  0  0  0  0
    1.1875   -0.1237    6.1134 C   0  0  0  0  0  0  0  0  0  0  0  0
    0.3712   -1.2099    6.4497 C   0  0  0  0  0  0  0  0  0  0  0  0
    0.8240   -2.5056    6.2599 C   0  0  0  0  0  0  0  0  0  0  0  0
    2.0936   -2.7032    5.7123 C   0  0  0  0  0  0  0  0  0  0  0  0
    0.1121   -3.6345    6.5361 O   0  0  0  0  0  0  0  0  0  0  0  0
   -1.0523   -3.4973    7.3510 C   0  0  2  0  0  0  0  0  0  0  0  0
   -1.8095   -2.1888    7.3046 C   0  0  0  0  0  0  0  0  0  0  0  0
   -3.0016   -2.0800    7.5626 O   0  0  0  0  0  0  0  0  0  0  0  0
   -0.9798   -0.9762    6.9666 C   0  0  0  0  0  0  0  0  0  0  0  0
   -1.4302    0.1519    7.0954 O   0  0  0  0  0  0  0  0  0  0  0  0
   -0.7241   -3.8615    8.7637 C   0  0  1  0  0  0  0  0  0  0  0  0
    0.2702   -3.0378    9.4275 O   0  0  0  0  0  0  0  0  0  0  0  0
   -1.8418   -4.2518    9.5613 O   0  0  0  0  0  0  0  0  0  0  0  0
   -0.9184   -5.1963    9.3196 C   0  0  0  0  0  0  0  0  0  0  0  0
   -0.2366   -5.8325   10.0978 O   0  0  0  0  0  0  0  0  0  0  0  0
    1.5503    2.4430    1.0002 C   0  0  0  0  0  0  0  0  0  0  0  0
    0.5570    1.7307    1.0564 O   0  0  0  0  0  0  0  0  0  0  0  0
    2.2752    2.6475   -0.3047 C   0  0  0  0  0  0  0  0  0  0  0  0
    2.2790    1.7836   -1.1656 O   0  0  0  0  0  0  0  0  0  0  0  0
    3.0082    3.9505   -0.5124 C   0  0  0  0  0  0  0  0  0  0  0  0
    3.0886    4.4879   -1.6025 O   0  0  0  0  0  0  0  0  0  0  0  0
  1  2  1  0  0  0  0
  2  3  2  0  0  0  0
  3  4  1  0  0  0  0
  3 51  1  0  0  0  0
  4  5  1  0  0  0  0
  5  6  1  1  0  0  0
  5 47  1  0  0  0  0
  6  7  1  0  0  0  0
  7  8  2  0  0  0  0
  7 12  1  0  0  0  0
  8  9  1  0  0  0  0
  8 26  1  0  0  0  0
  9 10  1  0  0  0  0
 10 11  2  0  0  0  0
 10 22  1  0  0  0  0
 11 12  1  0  0  0  0
 11 13  1  0  0  0  0
 13 14  1  0  0  0  0
 13 20  1  0  0  0  0
 14 15  1  0  0  0  0
 15 16  2  0  0  0  0
 15 17  1  0  0  0  0
 17 18  1  0  0  0  0
 18 19  2  0  0  0  0
 18 20  1  0  0  0  0
 20 21  2  0  0  0  0
 21 22  1  0  0  0  0
 21 23  1  0  0  0  0
 23 24  1  0  0  0  0
 23 25  1  0  0  0  0
 24 25  1  0  0  0  0
 26 27  2  0  0  0  0
 26 31  1  0  0  0  0
 27 28  1  0  0  0  0
 28 29  2  0  0  0  0
 29 30  1  0  0  0  0
 30 31  2  0  0  0  0
 30 35  1  0  0  0  0
 31 32  1  0  0  0  0
 32 33  2  0  0  0  0
 33 34  1  0  0  0  0
 33 40  1  0  0  0  0
 34 35  2  0  0  0  0
 34 36  1  0  0  0  0
 37 36  1  6  0  0  0
 37 38  1  0  0  0  0
 37 42  1  0  0  0  0
 38 39  2  0  0  0  0
 38 40  1  0  0  0  0
 40 41  2  0  0  0  0
 42 43  1  1  0  0  0
 42 44  1  0  0  0  0
 42 45  1  0  0  0  0
 44 45  1  0  0  0  0
 45 46  2  0  0  0  0
 47 48  2  0  0  0  0
 47 49  1  0  0  0  0
 49 50  2  0  0  0  0
 49 51  1  0  0  0  0
 51 52  2  0  0  0  0
M  END
$$$$