
 OpenBabel11152013073D

 54 62  0  0  1  0  0  0  0  0999 V2000
   -1.8162    1.0925   -4.5589 O   0  0  0  0  0  0  0  0  0  0  0  0
   -1.4417    1.1853   -3.2430 C   0  0  0  0  0  0  0  0  0  0  0  0
   -0.4694    0.4337   -2.7115 C   0  0  0  0  0  0  0  0  0  0  0  0
    0.1749   -0.5139   -3.4801 O   0  0  0  0  0  0  0  0  0  0  0  0
    1.5308   -0.7577   -3.1274 C   0  0  2  0  0  0  0  0  0  0  0  0
    2.1145   -1.7703   -3.9512 O   0  0  0  0  0  0  0  0  0  0  0  0
    2.1249   -1.5279   -5.3187 C   0  0  0  0  0  0  0  0  0  0  0  0
    2.0552   -2.5466   -6.1967 C   0  0  0  0  0  0  0  0  0  0  0  0
    2.1381   -2.3768   -7.5702 O   0  0  0  0  0  0  0  0  0  0  0  0
    2.3585   -1.1114   -8.0948 C   0  0  0  0  0  0  0  0  0  0  0  0
    2.4553   -0.0263   -7.3078 C   0  0  0  0  0  0  0  0  0  0  0  0
    2.3120   -0.1167   -5.8170 C   0  0  0  0  0  0  0  0  0  0  0  0
    2.6838    1.3377   -7.8850 C   0  0  3  0  0  0  0  0  0  0  0  0
    3.8958    1.8396   -7.3322 O   0  0  0  0  0  0  0  0  0  0  0  0
    4.4504    2.9723   -7.8294 C   0  0  0  0  0  0  0  0  0  0  0  0
    5.3379    3.5616   -7.2278 O   0  0  0  0  0  0  0  0  0  0  0  0
    3.9838    3.4213   -9.0182 O   0  0  0  0  0  0  0  0  0  0  0  0
    3.0872    2.6949   -9.8496 C   0  0  3  0  0  0  0  0  0  0  0  0
    2.8240    1.3282   -9.3543 C   0  0  0  0  0  0  0  0  0  0  0  0
    2.7244    0.2028  -10.0909 C   0  0  0  0  0  0  0  0  0  0  0  0
    2.4750   -1.0251   -9.4742 O   0  0  0  0  0  0  0  0  0  0  0  0
    2.8324    0.1530  -11.5633 C   0  0  0  0  0  0  0  0  0  0  0  0
    4.0094    0.5919  -12.2615 O   0  0  0  0  0  0  0  0  0  0  0  0
    3.6708   -0.8066  -12.2277 O   0  0  0  0  0  0  0  0  0  0  0  0
    1.8447    3.3788   -9.8740 O   0  0  0  0  0  0  0  0  0  0  0  0
    1.9246   -3.9521   -5.7875 C   0  0  0  0  0  0  0  0  0  0  0  0
    0.6540   -4.3864   -5.6629 N   0  0  0  0  0  0  0  0  0  0  0  0
    0.4444   -5.6288   -5.3458 N   0  0  0  0  0  0  0  0  0  0  0  0
    1.4305   -6.4802   -5.1635 N   0  0  0  0  0  0  0  0  0  0  0  0
    2.7117   -6.0940   -5.2835 C   0  0  0  0  0  0  0  0  0  0  0  0
    3.0304   -4.7780   -5.5993 C   0  0  0  0  0  0  0  0  0  0  0  0
    4.3892   -4.3770   -5.7168 C   0  0  0  0  0  0  0  0  0  0  0  0
    5.4185   -5.3017   -5.5388 C   0  0  0  0  0  0  0  0  0  0  0  0
    6.8211   -4.8881   -5.6465 C   0  0  0  0  0  0  0  0  0  0  0  0
    7.1400   -3.7153   -5.7515 O   0  0  0  0  0  0  0  0  0  0  0  0
    7.8615   -5.9859   -5.6744 C   0  0  0  0  0  0  0  0  0  0  0  0
    9.0520   -5.7295   -5.7923 O   0  0  0  0  0  0  0  0  0  0  0  0
    7.3055   -7.3885   -5.7397 C   0  0  1  0  0  0  0  0  0  0  0  0
    6.0599   -7.5912   -5.0580 O   0  0  0  0  0  0  0  0  0  0  0  0
    5.1168   -6.6206   -5.2542 C   0  0  0  0  0  0  0  0  0  0  0  0
    3.7741   -6.9962   -5.1134 C   0  0  0  0  0  0  0  0  0  0  0  0
    3.4932   -8.3132   -4.8182 O   0  0  0  0  0  0  0  0  0  0  0  0
    7.2213   -7.9160   -7.1436 C   0  0  1  0  0  0  0  0  0  0  0  0
    6.6544   -9.2415   -7.2805 O   0  0  0  0  0  0  0  0  0  0  0  0
    6.8188   -6.9646   -8.1242 O   0  0  0  0  0  0  0  0  0  0  0  0
    8.0615   -7.4792   -8.2598 C   0  0  0  0  0  0  0  0  0  0  0  0
    8.5228   -8.1204   -9.1834 O   0  0  0  0  0  0  0  0  0  0  0  0
    1.5708   -1.1812   -1.6675 C   0  0  0  0  0  0  0  0  0  0  0  0
    2.0169   -2.2591   -1.2738 O   0  0  0  0  0  0  0  0  0  0  0  0
    1.1162   -0.0719   -0.7491 C   0  0  0  0  0  0  0  0  0  0  0  0
   -0.1289    0.6344   -1.2646 C   0  0  0  0  0  0  0  0  0  0  0  0
   -0.7944    1.4062   -0.5709 O   0  0  0  0  0  0  0  0  0  0  0  0
    2.1337    0.8448   -0.6393 F   0  0  0  0  0  0  0  0  0  0  0  0
    0.9204   -0.5285    0.5263 F   0  0  0  0  0  0  0  0  0  0  0  0
  1  2  1  0  0  0  0
  2  3  2  0  0  0  0
  3  4  1  0  0  0  0
  3 51  1  0  0  0  0
  4  5  1  0  0  0  0
  5  6  1  6  0  0  0
  5 48  1  0  0  0  0
  6  7  1  0  0  0  0
  7  8  2  0  0  0  0
  7 12  1  0  0  0  0
  8  9  1  0  0  0  0
  8 26  1  0  0  0  0
  9 10  1  0  0  0  0
 10 11  2  0  0  0  0
 10 21  1  0  0  0  0
 11 12  1  0  0  0  0
 11 13  1  0  0  0  0
 13 14  1  0  0  0  0
 13 19  1  0  0  0  0
 14 15  1  0  0  0  0
 15 16  2  0  0  0  0
 15 17  1  0  0  0  0
 17 18  1  0  0  0  0
 18 19  1  0  0  0  0
 18 25  1  0  0  0  0
 19 20  2  0  0  0  0
 20 21  1  0  0  0  0
 20 22  1  0  0  0  0
 22 23  1  0  0  0  0
 22 24  1  0  0  0  0
 23 24  1  0  0  0  0
 26 27  2  0  0  0  0
 26 31  1  0  0  0  0
 27 28  1  0  0  0  0
 28 29  2  0  0  0  0
 29 30  1  0  0  0  0
 30 31  2  0  0  0  0
 30 41  1  0  0  0  0
 31 32  1  0  0  0  0
 32 33  2  0  0  0  0
 33 34  1  0  0  0  0
 33 40  1  0  0  0  0
 34 35  2  0  0  0  0
 34 36  1  0  0  0  0
 36 37  2  0  0  0  0
 38 36  1  6  0  0  0
 38 39  1  0  0  0  0
 38 43  1  0  0  0  0
 39 40  1  0  0  0  0
 40 41  2  0  0  0  0
 41 42  1  0  0  0  0
 43 44  1  6  0  0  0
 43 45  1  0  0  0  0
 43 46  1  0  0  0  0
 45 46  1  0  0  0  0
 46 47  2  0  0  0  0
 48 49  2  0  0  0  0
 48 50  1  0  0  0  0
 50 51  1  0  0  0  0
 50 53  1  0  0  0  0
 50 54  1  0  0  0  0
 51 52  2  0  0  0  0
M  END
$$$$