
 OpenBabel10232008493D

 69 80  0  0  1  0  0  0  0  0999 V2000
    0.4836   -0.2456   -1.4143 O   0  0  0  0  0  0  0  0  0  0  0  0
    1.6775   -0.3217   -0.6344 C   0  0  3  0  0  0  0  0  0  0  0  0
    2.5636    0.9291   -0.7445 C   0  0  3  0  0  0  0  0  0  0  0  0
    3.8222    0.7354   -0.0600 O   0  0  0  0  0  0  0  0  0  0  0  0
    4.5058   -0.4145   -0.3431 C   0  0  0  0  0  0  0  0  0  0  0  0
    3.8644   -1.5794   -0.7405 C   0  0  0  0  0  0  0  0  0  0  0  0
    2.4160   -1.5781   -1.1006 C   0  0  3  0  0  0  0  0  0  0  0  0
    2.3146   -1.7708   -2.5184 O   0  0  0  0  0  0  0  0  0  0  0  0
    4.6039   -2.7674   -0.7985 C   0  0  0  0  0  0  0  0  0  0  0  0
    5.9871   -2.8457   -0.5192 C   0  0  0  0  0  0  0  0  0  0  0  0
    6.6768   -1.6248   -0.3031 C   0  0  0  0  0  0  0  0  0  0  0  0
    5.8894   -0.4444   -0.1577 C   0  0  0  0  0  0  0  0  0  0  0  0
    6.4957    0.7070    0.1884 F   0  0  0  0  0  0  0  0  0  0  0  0
    8.0835   -1.7065   -0.2434 C   0  0  0  0  0  0  0  0  0  0  0  0
    9.0928   -0.3215   -0.0122 Cl  0  0  0  0  0  0  0  0  0  0  0  0
    8.7783   -2.9328   -0.3626 C   0  0  0  0  0  0  0  0  0  0  0  0
    8.1264   -4.1790   -0.3609 C   0  0  0  0  0  0  0  0  0  0  0  0
    6.7106   -4.0823   -0.4287 C   0  0  0  0  0  0  0  0  0  0  0  0
    5.7339   -5.5217   -0.2327 Cl  0  0  0  0  0  0  0  0  0  0  0  0
    8.9424   -5.4664   -0.2567 C   0  0  0  0  0  0  0  0  0  0  0  0
    8.5584   -6.6535   -0.9571 C   0  0  0  0  0  0  0  0  0  0  0  0
    9.1826   -7.9741   -0.8055 C   0  0  0  0  0  0  0  0  0  0  0  0
    8.8047   -9.4337   -1.2269 C   0  0  0  0  0  0  0  0  0  0  0  0
    9.6595  -10.4846   -0.8509 C   0  0  0  0  0  0  0  0  0  0  0  0
    9.2145  -11.8278   -0.7489 N   0  0  0  0  0  0  0  0  0  0  0  0
   10.8858  -10.1331   -0.3094 C   0  0  0  0  0  0  0  0  0  0  0  0
   11.2526   -8.8860   -0.0260 N   0  0  0  0  0  0  0  0  0  0  0  0
   10.4329   -7.8473   -0.1452 N   0  3  0  0  0  0  0  0  0  0  0  0
   10.8916   -6.6689    0.4202 N   0  3  0  0  0  0  0  0  0  0  0  0
   10.1157   -5.5600    0.5370 C   0  0  0  0  0  0  0  0  0  0  0  0
   10.5576   -4.5096    1.5377 C   0  0  0  0  0  0  0  0  0  0  0  0
   12.5291   -6.6191    0.9907 Cl  0  0  0  0  0  0  0  0  0  0  0  0
    7.4682   -9.9400   -2.0518 N   0  3  0  0  0  0  0  0  0  0  0  0
    7.4603  -11.0600   -2.9457 N   0  3  0  0  0  0  0  0  0  0  0  0
    8.9129  -11.7398   -3.5953 Cl  0  0  0  0  0  0  0  0  0  0  0  0
    6.2951  -11.5369   -3.5527 C   0  0  0  0  0  0  0  0  0  0  0  0
    5.0116  -10.9356   -3.4427 C   0  0  0  0  0  0  0  0  0  0  0  0
    4.9901   -9.8270   -2.6061 C   0  0  0  0  0  0  0  0  0  0  0  0
    6.2142   -9.3618   -1.8800 C   0  0  0  0  0  0  0  0  0  0  0  0
    6.0780   -8.3460   -0.9354 N   0  0  0  0  0  0  0  0  0  0  0  0
    3.8088   -9.2079   -2.4887 N   0  0  0  0  0  0  0  0  0  0  0  0
    2.6507   -9.5342   -3.1184 N   0  3  0  0  0  0  0  0  0  0  0  0
    2.5666  -10.6148   -3.9699 C   0  0  0  0  0  0  0  0  0  0  0  0
    3.7860  -11.3338   -4.1025 N   0  3  0  0  0  0  0  0  0  0  0  0
    3.7805  -12.4605   -4.8991 N   0  0  0  0  0  0  0  0  0  0  0  0
    2.6578  -12.8858   -5.5445 N   0  3  0  0  0  0  0  0  0  0  0  0
    2.6789  -14.1437   -6.3803 C   0  0  0  0  0  0  0  0  0  0  0  0
    1.5219  -12.1812   -5.4512 C   0  0  0  0  0  0  0  0  0  0  0  0
    1.4716  -11.0660   -4.6889 N   0  3  0  0  0  0  0  0  0  0  0  0
   -0.0542  -10.2764   -4.7388 Cl  0  0  0  0  0  0  0  0  0  0  0  0
    1.3471   -8.5031   -2.7023 Cl  0  0  0  0  0  0  0  0  0  0  0  0
    1.9038    2.2761   -0.2580 C   0  0  3  0  0  0  0  0  0  0  0  0
    2.9404    3.4097   -0.4464 C   0  0  0  0  0  0  0  0  0  0  0  0
    2.3300    4.7847   -0.2125 C   0  0  0  0  0  0  0  0  0  0  0  0
    1.6063    4.8759    1.0992 C   0  0  0  0  0  0  0  0  0  0  0  0
    1.1050    3.7421    1.7486 C   0  0  0  0  0  0  0  0  0  0  0  0
    1.3586    2.3284    1.2172 C   0  0  3  0  0  0  0  0  0  0  0  0
    0.0997    1.4429    1.4509 C   0  0  3  0  0  0  0  0  0  0  0  0
   -0.5719    1.2550    0.2800 F   0  0  0  0  0  0  0  0  0  0  0  0
   -0.9044    1.8967    2.5096 C   0  0  0  0  0  0  0  0  0  0  0  0
   -0.1658    2.6428    3.6134 C   0  0  3  0  0  0  0  0  0  0  0  0
    0.3537    3.9019    2.9473 C   0  0  0  0  0  0  0  0  0  0  0  0
    0.0187    5.1838    3.4317 C   0  0  0  0  0  0  0  0  0  0  0  0
    0.5876    6.2930    2.7949 C   0  0  0  0  0  0  0  0  0  0  0  0
    1.3584    6.1424    1.6422 C   0  0  0  0  0  0  0  0  0  0  0  0
   -0.9195    5.3481    4.6178 C   0  0  3  0  0  0  0  0  0  0  0  0
   -1.8444    4.1365    4.7789 C   0  0  0  0  0  0  0  0  0  0  0  0
   -1.0204    2.8641    4.8632 C   0  0  0  0  0  0  0  0  0  0  0  0
   -1.9663    6.7942    4.4808 Cl  0  0  0  0  0  0  0  0  0  0  0  0
  1  2  1  0  0  0  0
  2  3  1  0  0  0  0
  2  7  1  0  0  0  0
  3  4  1  0  0  0  0
  3 52  1  0  0  0  0
  4  5  1  0  0  0  0
  5  6  2  0  0  0  0
  5 12  1  0  0  0  0
  6  7  1  0  0  0  0
  6  9  1  0  0  0  0
  7  8  1  0  0  0  0
  9 10  2  0  0  0  0
 10 11  1  0  0  0  0
 10 18  1  0  0  0  0
 11 12  2  0  0  0  0
 11 14  1  0  0  0  0
 12 13  1  0  0  0  0
 14 15  1  0  0  0  0
 14 16  2  0  0  0  0
 16 17  1  0  0  0  0
 17 18  2  0  0  0  0
 17 20  1  0  0  0  0
 18 19  1  0  0  0  0
 20 21  2  0  0  0  0
 20 30  1  0  0  0  0
 21 22  1  0  0  0  0
 22 23  2  0  0  0  0
 22 28  1  0  0  0  0
 23 24  1  0  0  0  0
 23 33  1  0  0  0  0
 24 25  1  0  0  0  0
 24 26  2  0  0  0  0
 26 27  1  0  0  0  0
 27 28  2  0  0  0  0
 28 29  1  0  0  0  0
 29 30  2  0  0  0  0
 29 32  1  0  0  0  0
 30 31  1  0  0  0  0
 33 34  2  0  0  0  0
 33 39  1  0  0  0  0
 34 35  1  0  0  0  0
 34 36  1  0  0  0  0
 36 37  2  0  0  0  0
 37 38  1  0  0  0  0
 37 44  1  0  0  0  0
 38 39  2  0  0  0  0
 38 41  1  0  0  0  0
 39 40  1  0  0  0  0
 41 42  2  0  0  0  0
 42 43  1  0  0  0  0
 42 51  1  0  0  0  0
 43 44  2  0  0  0  0
 43 49  1  0  0  0  0
 44 45  1  0  0  0  0
 45 46  2  0  0  0  0
 46 47  1  0  0  0  0
 46 48  1  0  0  0  0
 48 49  2  0  0  0  0
 49 50  1  0  0  0  0
 52 53  1  0  0  0  0
 52 57  1  0  0  0  0
 53 54  1  0  0  0  0
 54 55  1  0  0  0  0
 55 56  2  0  0  0  0
 55 65  1  0  0  0  0
 56 57  1  0  0  0  0
 56 62  1  0  0  0  0
 57 58  1  0  0  0  0
 58 59  1  0  0  0  0
 58 60  1  0  0  0  0
 60 61  1  0  0  0  0
 61 62  1  0  0  0  0
 61 68  1  0  0  0  0
 62 63  2  0  0  0  0
 63 64  1  0  0  0  0
 63 66  1  0  0  0  0
 64 65  2  0  0  0  0
 66 67  1  0  0  0  0
 66 69  1  0  0  0  0
 67 68  1  0  0  0  0
M  CHG  8  28   1  29   1  33   1  34   1  42   1  44   1  46   1  49   1
M  END
$$$$