
 OpenBabel09242005343D

 51 58  0  0  1  0  0  0  0  0999 V2000
    7.5790    4.5448   -3.4766 O   0  0  0  0  0  0  0  0  0  0  0  0
    7.3908    3.2713   -3.9446 C   0  0  0  0  0  0  0  0  0  0  0  0
    6.2436    2.5947   -3.7994 C   0  0  0  0  0  0  0  0  0  0  0  0
    5.1632    3.1445   -3.1295 O   0  0  0  0  0  0  0  0  0  0  0  0
    3.8858    2.7535   -3.6379 C   0  0  2  0  0  0  0  0  0  0  0  0
    2.8052    3.3997   -2.9526 O   0  0  0  0  0  0  0  0  0  0  0  0
    2.7917    4.7856   -3.0332 C   0  0  0  0  0  0  0  0  0  0  0  0
    2.4221    5.5457   -1.9821 C   0  0  0  0  0  0  0  0  0  0  0  0
    2.3846    6.9360   -2.0185 O   0  0  0  0  0  0  0  0  0  0  0  0
    2.6328    7.5879   -3.2139 C   0  0  0  0  0  0  0  0  0  0  0  0
    2.9478    6.9143   -4.3309 C   0  0  0  0  0  0  0  0  0  0  0  0
    3.1053    5.4313   -4.3604 C   0  0  0  0  0  0  0  0  0  0  0  0
    3.2037    7.6874   -5.5780 C   0  0  0  0  0  0  0  0  0  0  0  0
    3.4807    7.0677   -6.6775 N   0  0  0  0  0  0  0  0  0  0  0  0
    3.7370    7.8024   -7.8184 C   0  0  0  0  0  0  0  0  0  0  0  0
    4.0461    7.1937   -8.8344 O   0  0  0  0  0  0  0  0  0  0  0  0
    3.6628    9.1781   -7.8663 N   0  0  0  0  0  0  0  0  0  0  0  0
    3.3979    9.8272   -6.7836 C   0  0  0  0  0  0  0  0  0  0  0  0
    3.1455    9.1673   -5.4986 C   0  0  0  0  0  0  0  0  0  0  0  0
    2.8636    9.7262   -4.3088 C   0  0  0  0  0  0  0  0  0  0  0  0
    2.5508    8.9603   -3.1904 N   0  0  0  0  0  0  0  0  0  0  0  0
    2.8572   11.2080   -4.1442 C   0  0  0  0  0  0  0  0  0  0  0  0
    3.5954   11.9748   -4.7321 O   0  0  0  0  0  0  0  0  0  0  0  0
    1.9495   11.5861   -3.2154 O   0  0  0  0  0  0  0  0  0  0  0  0
    1.9926    4.9866   -0.6914 C   0  0  0  0  0  0  0  0  0  0  0  0
    2.9927    4.8541    0.2169 N   0  0  0  0  0  0  0  0  0  0  0  0
    2.6543    4.4081    1.4404 C   0  0  0  0  0  0  0  0  0  0  0  0
    1.3587    4.1016    1.8173 C   0  0  0  0  0  0  0  0  0  0  0  0
    0.3249    4.2576    0.8888 C   0  0  0  0  0  0  0  0  0  0  0  0
    0.6308    4.7014   -0.4167 C   0  0  0  0  0  0  0  0  0  0  0  0
   -0.4377    4.8468   -1.3362 C   0  0  0  0  0  0  0  0  0  0  0  0
   -1.7604    4.5998   -0.9469 C   0  0  0  0  0  0  0  0  0  0  0  0
   -2.0567    4.2041    0.3513 C   0  0  0  0  0  0  0  0  0  0  0  0
   -1.0116    4.0048    1.2538 C   0  0  0  0  0  0  0  0  0  0  0  0
   -3.3197    4.0183    0.8470 O   0  0  0  0  0  0  0  0  0  0  0  0
   -4.4134    4.5227    0.0641 C   0  0  2  0  0  0  0  0  0  0  0  0
   -4.2159    4.3311   -1.4190 C   0  0  0  0  0  0  0  0  0  0  0  0
   -5.0450    3.8618   -2.1843 O   0  0  0  0  0  0  0  0  0  0  0  0
   -2.8564    4.7613   -1.9078 C   0  0  0  0  0  0  0  0  0  0  0  0
   -2.6959    5.2173   -3.0276 O   0  0  0  0  0  0  0  0  0  0  0  0
   -4.7912    5.9433    0.4075 C   0  0  1  0  0  0  0  0  0  0  0  0
   -5.8987    6.5004   -0.3299 O   0  0  0  0  0  0  0  0  0  0  0  0
   -4.8367    6.2387    1.8203 O   0  0  0  0  0  0  0  0  0  0  0  0
   -3.9242    6.8860    1.0851 C   0  0  0  0  0  0  0  0  0  0  0  0
   -2.7254    7.0091    1.1901 O   0  0  0  0  0  0  0  0  0  0  0  0
    3.7376    1.2500   -3.5130 C   0  0  0  0  0  0  0  0  0  0  0  0
    2.8470    0.6333   -2.9503 O   0  0  0  0  0  0  0  0  0  0  0  0
    4.8435    0.5360   -4.2400 C   0  0  0  0  0  0  0  0  0  0  0  0
    4.6228   -0.5280   -4.7950 O   0  0  0  0  0  0  0  0  0  0  0  0
    6.1945    1.2118   -4.3599 C   0  0  0  0  0  0  0  0  0  0  0  0
    7.1403    0.6593   -4.8977 O   0  0  0  0  0  0  0  0  0  0  0  0
  1  2  1  0  0  0  0
  2  3  2  0  0  0  0
  3  4  1  0  0  0  0
  3 50  1  0  0  0  0
  4  5  1  0  0  0  0
  5  6  1  1  0  0  0
  5 46  1  0  0  0  0
  6  7  1  0  0  0  0
  7  8  2  0  0  0  0
  7 12  1  0  0  0  0
  8  9  1  0  0  0  0
  8 25  1  0  0  0  0
  9 10  1  0  0  0  0
 10 11  2  0  0  0  0
 10 21  1  0  0  0  0
 11 12  1  0  0  0  0
 11 13  1  0  0  0  0
 13 14  2  0  0  0  0
 13 19  1  0  0  0  0
 14 15  1  0  0  0  0
 15 16  2  0  0  0  0
 15 17  1  0  0  0  0
 17 18  2  0  0  0  0
 18 19  1  0  0  0  0
 19 20  2  0  0  0  0
 20 21  1  0  0  0  0
 20 22  1  0  0  0  0
 22 23  2  0  0  0  0
 22 24  1  0  0  0  0
 25 26  2  0  0  0  0
 25 30  1  0  0  0  0
 26 27  1  0  0  0  0
 27 28  2  0  0  0  0
 28 29  1  0  0  0  0
 29 30  2  0  0  0  0
 29 34  1  0  0  0  0
 30 31  1  0  0  0  0
 31 32  2  0  0  0  0
 32 33  1  0  0  0  0
 32 39  1  0  0  0  0
 33 34  2  0  0  0  0
 33 35  1  0  0  0  0
 36 35  1  1  0  0  0
 36 37  1  0  0  0  0
 36 41  1  0  0  0  0
 37 38  2  0  0  0  0
 37 39  1  0  0  0  0
 39 40  2  0  0  0  0
 41 42  1  6  0  0  0
 41 43  1  0  0  0  0
 41 44  1  0  0  0  0
 43 44  1  0  0  0  0
 44 45  2  0  0  0  0
 46 47  2  0  0  0  0
 46 48  1  0  0  0  0
 48 49  2  0  0  0  0
 48 50  1  0  0  0  0
 50 51  2  0  0  0  0
M  END
$$$$