
 OpenBabel09232009233D

 51 59  0  0  1  0  0  0  0  0999 V2000
   -1.8304   -0.1190    5.9129 F   0  0  0  0  0  0  0  0  0  0  0  0
   -1.4603   -0.5481    4.6913 C   0  0  0  0  0  0  0  0  0  0  0  0
   -0.4886    0.0541    4.0046 C   0  0  0  0  0  0  0  0  0  0  0  0
    0.1551    1.1699    4.4988 O   0  0  0  0  0  0  0  0  0  0  0  0
    1.4932    1.3542    4.0363 C   0  0  2  0  0  0  0  0  0  0  0  0
    2.0457    2.5733    4.5529 O   0  0  0  0  0  0  0  0  0  0  0  0
    2.1557    2.7197    5.9280 C   0  0  0  0  0  0  0  0  0  0  0  0
    2.1014    3.9405    6.4968 C   0  0  0  0  0  0  0  0  0  0  0  0
    2.2600    4.1705    7.8539 O   0  0  0  0  0  0  0  0  0  0  0  0
    2.6235    3.1278    8.6744 C   0  0  0  0  0  0  0  0  0  0  0  0
    2.7592    1.8328    8.2089 C   0  0  0  0  0  0  0  0  0  0  0  0
    2.4563    1.5138    6.7755 C   0  0  0  0  0  0  0  0  0  0  0  0
    3.1504    0.8682    9.1407 C   0  0  0  0  0  0  0  0  0  0  0  0
    3.3369   -0.4652    8.7538 N   0  0  0  0  0  0  0  0  0  0  0  0
    3.6325   -1.4862    9.5989 C   0  0  0  0  0  0  0  0  0  0  0  0
    3.7431   -2.6369    9.1901 O   0  0  0  0  0  0  0  0  0  0  0  0
    3.7737   -1.1828   10.9077 N   0  0  0  0  0  0  0  0  0  0  0  0
    3.8351    0.1542   11.4371 C   0  0  0  0  0  0  0  0  0  0  0  0
    3.3693    1.2086   10.4798 C   0  0  0  0  0  0  0  0  0  0  0  0
    3.2013    2.5434   10.8710 C   0  0  0  0  0  0  0  0  0  0  0  0
    2.8397    3.4866    9.9594 N   0  0  0  0  0  0  0  0  0  0  0  0
    3.4561    3.0222   12.2829 C   0  0  0  0  0  0  0  0  0  0  0  0
    2.3578    3.6370   12.9783 O   0  0  0  0  0  0  0  0  0  0  0  0
    2.8237    2.3352   13.3748 O   0  0  0  0  0  0  0  0  0  0  0  0
    1.9215    5.1846    5.7242 C   0  0  0  0  0  0  0  0  0  0  0  0
    3.0837    5.7648    5.3514 N   0  0  0  0  0  0  0  0  0  0  0  0
    2.9776    6.9211    4.6940 C   0  0  0  0  0  0  0  0  0  0  0  0
    1.8370    7.5511    4.3868 N   0  0  0  0  0  0  0  0  0  0  0  0
    0.6984    6.9664    4.7649 C   0  0  0  0  0  0  0  0  0  0  0  0
    0.6605    5.7433    5.4524 C   0  0  0  0  0  0  0  0  0  0  0  0
   -0.5943    5.1948    5.8208 C   0  0  0  0  0  0  0  0  0  0  0  0
   -1.7797    5.8651    5.4993 C   0  0  0  0  0  0  0  0  0  0  0  0
   -1.7373    7.0698    4.8104 C   0  0  0  0  0  0  0  0  0  0  0  0
   -0.4976    7.6093    4.4637 C   0  0  0  0  0  0  0  0  0  0  0  0
   -2.8308    7.8011    4.4386 O   0  0  0  0  0  0  0  0  0  0  0  0
   -4.0972    7.1340    4.4706 C   0  0  2  0  0  0  0  0  0  0  0  0
   -4.2841    6.1750    5.6207 C   0  0  0  0  0  0  0  0  0  0  0  0
   -5.3133    6.0629    6.2714 O   0  0  0  0  0  0  0  0  0  0  0  0
   -3.0770    5.3140    5.9064 C   0  0  0  0  0  0  0  0  0  0  0  0
   -3.1821    4.2301    6.4565 O   0  0  0  0  0  0  0  0  0  0  0  0
   -4.3637    6.4617    3.1612 C   0  0  3  0  0  0  0  0  0  0  0  0
   -3.4259    5.4336    2.7554 O   0  0  0  0  0  0  0  0  0  0  0  0
   -5.7410    6.1822    2.9038 O   0  0  0  0  0  0  0  0  0  0  0  0
   -5.1432    7.0658    2.0867 C   0  0  0  0  0  0  0  0  0  0  0  0
   -4.9736    7.0194    0.8829 O   0  0  0  0  0  0  0  0  0  0  0  0
    1.5772    1.4292    2.5151 C   0  0  0  0  0  0  0  0  0  0  0  0
    2.3273    2.1449    1.8674 O   0  0  0  0  0  0  0  0  0  0  0  0
    0.6728    0.4392    1.8229 C   0  0  0  0  0  0  0  0  0  0  0  0
    0.6117    0.3926    0.6047 O   0  0  0  0  0  0  0  0  0  0  0  0
   -0.1768   -0.4861    2.6589 C   0  0  0  0  0  0  0  0  0  0  0  0
   -0.5307   -1.5804    2.2572 O   0  0  0  0  0  0  0  0  0  0  0  0
  1  2  1  0  0  0  0
  2  3  2  0  0  0  0
  3  4  1  0  0  0  0
  3 50  1  0  0  0  0
  4  5  1  0  0  0  0
  5  6  1  1  0  0  0
  5 46  1  0  0  0  0
  6  7  1  0  0  0  0
  7  8  2  0  0  0  0
  7 12  1  0  0  0  0
  8  9  1  0  0  0  0
  8 25  1  0  0  0  0
  9 10  1  0  0  0  0
 10 11  2  0  0  0  0
 10 21  1  0  0  0  0
 11 12  1  0  0  0  0
 11 13  1  0  0  0  0
 13 14  1  0  0  0  0
 13 19  2  0  0  0  0
 14 15  1  0  0  0  0
 15 16  2  0  0  0  0
 15 17  1  0  0  0  0
 17 18  1  0  0  0  0
 18 19  1  0  0  0  0
 19 20  1  0  0  0  0
 20 21  2  0  0  0  0
 20 22  1  0  0  0  0
 22 23  1  0  0  0  0
 22 24  1  0  0  0  0
 23 24  1  0  0  0  0
 25 26  2  0  0  0  0
 25 30  1  0  0  0  0
 26 27  1  0  0  0  0
 27 28  2  0  0  0  0
 28 29  1  0  0  0  0
 29 30  2  0  0  0  0
 29 34  1  0  0  0  0
 30 31  1  0  0  0  0
 31 32  2  0  0  0  0
 32 33  1  0  0  0  0
 32 39  1  0  0  0  0
 33 34  2  0  0  0  0
 33 35  1  0  0  0  0
 36 35  1  6  0  0  0
 36 37  1  0  0  0  0
 36 41  1  0  0  0  0
 37 38  2  0  0  0  0
 37 39  1  0  0  0  0
 39 40  2  0  0  0  0
 41 42  1  0  0  0  0
 41 43  1  0  0  0  0
 41 44  1  0  0  0  0
 43 44  1  0  0  0  0
 44 45  2  0  0  0  0
 46 47  2  0  0  0  0
 46 48  1  0  0  0  0
 48 49  2  0  0  0  0
 48 50  1  0  0  0  0
 50 51  2  0  0  0  0
M  END
$$$$