
 OpenBabel11272001433D

 54 62  0  0  1  0  0  0  0  0999 V2000
    1.3016   -2.0798   -4.8745 O   0  0  0  0  0  0  0  0  0  0  0  0
    1.8797   -1.1521   -4.0421 C   0  0  0  0  0  0  0  0  0  0  0  0
    2.2435   -1.4320   -2.7841 C   0  0  0  0  0  0  0  0  0  0  0  0
    2.0007   -2.6888   -2.2514 O   0  0  0  0  0  0  0  0  0  0  0  0
    2.9269   -3.1201   -1.2564 C   0  0  2  0  0  0  0  0  0  0  0  0
    2.6306   -4.4591   -0.8066 O   0  0  0  0  0  0  0  0  0  0  0  0
    2.6470   -5.4886   -1.7422 C   0  0  0  0  0  0  0  0  0  0  0  0
    2.2515   -6.7487   -1.4285 C   0  0  0  0  0  0  0  0  0  0  0  0
    2.2670   -7.7731   -2.3990 O   0  0  0  0  0  0  0  0  0  0  0  0
    2.9126   -7.5815   -3.6268 C   0  0  0  0  0  0  0  0  0  0  0  0
    3.3647   -6.3688   -3.9772 C   0  0  0  0  0  0  0  0  0  0  0  0
    3.1602   -5.1712   -3.1224 C   0  0  0  0  0  0  0  0  0  0  0  0
    4.1070   -6.1114   -5.2510 C   0  0  3  0  0  0  0  0  0  0  0  0
    5.4324   -5.7683   -4.8881 O   0  0  0  0  0  0  0  0  0  0  0  0
    6.3316   -5.5635   -5.8860 C   0  0  0  0  0  0  0  0  0  0  0  0
    7.3993   -5.0149   -5.6710 O   0  0  0  0  0  0  0  0  0  0  0  0
    5.9672   -6.0077   -7.1125 O   0  0  0  0  0  0  0  0  0  0  0  0
    4.9446   -6.9755   -7.3294 C   0  0  3  0  0  0  0  0  0  0  0  0
    4.2049   -7.3226   -6.0873 C   0  0  0  0  0  0  0  0  0  0  0  0
    3.6969   -8.5197   -5.7122 C   0  0  0  0  0  0  0  0  0  0  0  0
    3.0760   -8.6611   -4.4684 O   0  3  0  0  0  0  0  0  0  0  0  0
    3.7598   -9.7363   -6.5432 C   0  0  3  0  0  0  0  0  0  0  0  0
    3.1621  -10.9123   -5.9992 N   0  0  0  0  0  0  0  0  0  0  0  0
    4.4050  -10.8706   -5.9948 N   0  0  0  0  0  0  0  0  0  0  0  0
    3.9694   -6.4229   -8.1903 O   0  0  0  0  0  0  0  0  0  0  0  0
    1.7550   -7.1679   -0.0631 C   0  0  0  0  0  0  0  0  0  0  0  0
    1.0892   -6.2336    0.7343 C   0  0  0  0  0  0  0  0  0  0  0  0
    0.6360   -6.5416    1.9511 N   0  3  0  0  0  0  0  0  0  0  0  0
    0.0522   -5.5800    2.6923 F   0  0  0  0  0  0  0  0  0  0  0  0
    0.7258   -7.7494    2.4567 N   0  0  0  0  0  0  0  0  0  0  0  0
    1.3087   -8.7231    1.7567 C   0  0  0  0  0  0  0  0  0  0  0  0
    1.8790   -8.4793    0.4832 C   0  0  0  0  0  0  0  0  0  0  0  0
    2.5221   -9.5700   -0.1489 C   0  0  0  0  0  0  0  0  0  0  0  0
    2.4881  -10.8632    0.3871 C   0  0  0  0  0  0  0  0  0  0  0  0
    3.0469  -11.9801   -0.3751 C   0  0  0  0  0  0  0  0  0  0  0  0
    3.5808  -11.7781   -1.4569 O   0  0  0  0  0  0  0  0  0  0  0  0
    2.8736  -13.3612    0.2171 C   0  0  0  0  0  0  0  0  0  0  0  0
    3.5939  -14.2763   -0.1497 O   0  0  0  0  0  0  0  0  0  0  0  0
    1.7701  -13.4682    1.2491 C   0  0  1  0  0  0  0  0  0  0  0  0
    1.7452  -12.3480    2.1546 O   0  0  0  0  0  0  0  0  0  0  0  0
    1.8764  -11.1003    1.6002 C   0  0  0  0  0  0  0  0  0  0  0  0
    1.3425  -10.0175    2.3221 C   0  0  0  0  0  0  0  0  0  0  0  0
    0.6102  -10.2989    3.5015 N   0  0  0  0  0  0  0  0  0  0  0  0
    0.4149  -13.7623    0.6429 C   0  0  1  0  0  0  0  0  0  0  0  0
    0.3066  -14.9818   -0.1141 O   0  0  0  0  0  0  0  0  0  0  0  0
   -0.7142  -13.4856    1.4946 O   0  0  0  0  0  0  0  0  0  0  0  0
   -0.6009  -12.7656    0.3796 C   0  0  0  0  0  0  0  0  0  0  0  0
   -0.5424  -11.5650    0.1565 O   0  0  0  0  0  0  0  0  0  0  0  0
    2.8151   -2.1492   -0.1073 C   0  0  0  0  0  0  0  0  0  0  0  0
    2.4151   -2.4113    1.0158 O   0  0  0  0  0  0  0  0  0  0  0  0
    3.2284   -0.7700   -0.5515 C   0  0  0  0  0  0  0  0  0  0  0  0
    3.9521   -0.0999    0.1620 O   0  0  0  0  0  0  0  0  0  0  0  0
    2.8569   -0.3407   -1.9636 C   0  0  0  0  0  0  0  0  0  0  0  0
    3.0740    0.7825   -2.3797 O   0  0  0  0  0  0  0  0  0  0  0  0
  1  2  1  0  0  0  0
  2  3  2  0  0  0  0
  3  4  1  0  0  0  0
  3 53  1  0  0  0  0
  4  5  1  0  0  0  0
  5  6  1  1  0  0  0
  5 49  1  0  0  0  0
  6  7  1  0  0  0  0
  7  8  2  0  0  0  0
  7 12  1  0  0  0  0
  8  9  1  0  0  0  0
  8 26  1  0  0  0  0
  9 10  1  0  0  0  0
 10 11  2  0  0  0  0
 10 21  1  0  0  0  0
 11 12  1  0  0  0  0
 11 13  1  0  0  0  0
 13 14  1  0  0  0  0
 13 19  1  0  0  0  0
 14 15  1  0  0  0  0
 15 16  2  0  0  0  0
 15 17  1  0  0  0  0
 17 18  1  0  0  0  0
 18 19  1  0  0  0  0
 18 25  1  0  0  0  0
 19 20  2  0  0  0  0
 20 21  1  0  0  0  0
 20 22  1  0  0  0  0
 22 23  1  0  0  0  0
 22 24  1  0  0  0  0
 23 24  2  0  0  0  0
 26 27  2  0  0  0  0
 26 32  1  0  0  0  0
 27 28  1  0  0  0  0
 28 29  1  0  0  0  0
 28 30  2  0  0  0  0
 30 31  1  0  0  0  0
 31 32  2  0  0  0  0
 31 42  1  0  0  0  0
 32 33  1  0  0  0  0
 33 34  2  0  0  0  0
 34 35  1  0  0  0  0
 34 41  1  0  0  0  0
 35 36  2  0  0  0  0
 35 37  1  0  0  0  0
 37 38  2  0  0  0  0
 39 37  1  6  0  0  0
 39 40  1  0  0  0  0
 39 44  1  0  0  0  0
 40 41  1  0  0  0  0
 41 42  2  0  0  0  0
 42 43  1  0  0  0  0
 44 45  1  6  0  0  0
 44 46  1  0  0  0  0
 44 47  1  0  0  0  0
 46 47  1  0  0  0  0
 47 48  2  0  0  0  0
 49 50  2  0  0  0  0
 49 51  1  0  0  0  0
 51 52  2  0  0  0  0
 51 53  1  0  0  0  0
 53 54  2  0  0  0  0
M  CHG  2  21   1  28   1
M  END
$$$$