
 OpenBabel11242000013D

 54 62  0  0  1  0  0  0  0  0999 V2000
    2.8834  -12.4364    2.9829 O   0  0  0  0  0  0  0  0  0  0  0  0
    3.7350  -12.2425    4.0379 C   0  0  0  0  0  0  0  0  0  0  0  0
    3.5113  -11.3243    4.9847 C   0  0  0  0  0  0  0  0  0  0  0  0
    2.4535  -10.4368    4.9004 O   0  0  0  0  0  0  0  0  0  0  0  0
    1.7307  -10.2406    6.1051 C   0  0  2  0  0  0  0  0  0  0  0  0
    0.7535   -9.1724    5.8821 O   0  0  0  0  0  0  0  0  0  0  0  0
    1.1339   -7.8501    6.0995 C   0  0  0  0  0  0  0  0  0  0  0  0
    0.2841   -6.9294    6.6182 C   0  0  0  0  0  0  0  0  0  0  0  0
    0.8067   -5.7383    7.1954 O   0  0  0  0  0  0  0  0  0  0  0  0
    2.1942   -5.6705    7.4785 C   0  0  0  0  0  0  0  0  0  0  0  0
    3.0560   -6.4278    6.7602 C   0  0  0  0  0  0  0  0  0  0  0  0
    2.5269   -7.3925    5.7377 C   0  0  0  0  0  0  0  0  0  0  0  0
    4.5265   -6.4886    7.0467 C   0  0  3  0  0  0  0  0  0  0  0  0
    5.3391   -6.3367    5.9054 O   0  0  0  0  0  0  0  0  0  0  0  0
    6.6757   -6.5406    6.1443 C   0  0  0  0  0  0  0  0  0  0  0  0
    7.4786   -6.7918    5.2679 O   0  0  0  0  0  0  0  0  0  0  0  0
    7.0340   -6.3220    7.4403 O   0  0  0  0  0  0  0  0  0  0  0  0
    6.4039   -5.1567    7.8769 C   0  0  3  0  0  0  0  0  0  0  0  0
    4.9136   -5.3808    7.9265 C   0  0  0  0  0  0  0  0  0  0  0  0
    4.0418   -4.6849    8.6860 C   0  0  0  0  0  0  0  0  0  0  0  0
    2.6478   -4.8320    8.5146 O   0  3  0  0  0  0  0  0  0  0  0  0
    4.6844   -3.7802    9.6599 C   0  0  0  0  0  0  0  0  0  0  0  0
    4.1147   -2.8827   10.4646 C   0  0  0  0  0  0  0  0  0  0  0  0
    6.0615   -3.8134    9.6956 O   0  3  0  0  0  0  0  0  0  0  0  0
    6.6774   -4.7854    9.1919 O   0  3  0  0  0  0  0  0  0  0  0  0
   -1.2214   -7.0712    6.5287 C   0  0  0  0  0  0  0  0  0  0  0  0
   -1.7415   -7.7988    5.4449 C   0  0  0  0  0  0  0  0  0  0  0  0
   -3.0564   -7.9443    5.2503 N   0  3  0  0  0  0  0  0  0  0  0  0
   -3.4884   -8.6667    4.1976 F   0  0  0  0  0  0  0  0  0  0  0  0
   -3.9499   -7.3939    6.0400 N   0  0  0  0  0  0  0  0  0  0  0  0
   -3.5539   -6.6508    7.0712 C   0  0  0  0  0  0  0  0  0  0  0  0
   -2.1832   -6.4481    7.3659 C   0  0  0  0  0  0  0  0  0  0  0  0
   -1.8827   -5.6258    8.4712 C   0  0  0  0  0  0  0  0  0  0  0  0
   -2.8881   -5.0133    9.2350 C   0  0  0  0  0  0  0  0  0  0  0  0
   -2.5081   -4.0937   10.3084 C   0  0  0  0  0  0  0  0  0  0  0  0
   -1.3275   -3.7835   10.4378 O   0  0  0  0  0  0  0  0  0  0  0  0
   -3.6324   -3.5499   11.1698 C   0  0  0  0  0  0  0  0  0  0  0  0
   -3.4129   -2.6101   11.9168 O   0  0  0  0  0  0  0  0  0  0  0  0
   -4.9412   -4.3129   11.0482 C   0  0  1  0  0  0  0  0  0  0  0  0
   -5.2453   -4.7229    9.7006 O   0  0  0  0  0  0  0  0  0  0  0  0
   -4.2205   -5.2462    8.9678 C   0  0  0  0  0  0  0  0  0  0  0  0
   -4.5309   -6.0541    7.8755 C   0  0  0  0  0  0  0  0  0  0  0  0
   -5.8217   -6.2743    7.5825 F   0  0  0  0  0  0  0  0  0  0  0  0
   -4.9355   -5.4973   11.9619 C   0  0  1  0  0  0  0  0  0  0  0  0
   -3.9061   -6.4995   11.7096 O   0  0  0  0  0  0  0  0  0  0  0  0
   -5.1798   -5.1959   13.3259 O   0  0  0  0  0  0  0  0  0  0  0  0
   -6.0996   -5.9778   12.7223 C   0  0  0  0  0  0  0  0  0  0  0  0
   -6.3871   -7.1365   12.9412 O   0  0  0  0  0  0  0  0  0  0  0  0
    2.5715   -9.9704    7.3618 C   0  0  0  0  0  0  0  0  0  0  0  0
    2.2178   -9.2707    8.3108 O   0  0  0  0  0  0  0  0  0  0  0  0
    4.0195  -10.3422    7.2278 C   0  0  0  0  0  0  0  0  0  0  0  0
    4.8152   -9.7275    7.9344 O   0  0  0  0  0  0  0  0  0  0  0  0
    4.4958  -11.2061    6.0891 C   0  0  0  0  0  0  0  0  0  0  0  0
    5.6232  -11.6605    6.0883 O   0  0  0  0  0  0  0  0  0  0  0  0
  1  2  1  0  0  0  0
  2  3  2  0  0  0  0
  3  4  1  0  0  0  0
  3 53  1  0  0  0  0
  4  5  1  0  0  0  0
  5  6  1  6  0  0  0
  5 49  1  0  0  0  0
  6  7  1  0  0  0  0
  7  8  2  0  0  0  0
  7 12  1  0  0  0  0
  8  9  1  0  0  0  0
  8 26  1  0  0  0  0
  9 10  1  0  0  0  0
 10 11  2  0  0  0  0
 10 21  1  0  0  0  0
 11 12  1  0  0  0  0
 11 13  1  0  0  0  0
 13 14  1  0  0  0  0
 13 19  1  0  0  0  0
 14 15  1  0  0  0  0
 15 16  2  0  0  0  0
 15 17  1  0  0  0  0
 17 18  1  0  0  0  0
 18 19  1  0  0  0  0
 18 25  1  0  0  0  0
 19 20  2  0  0  0  0
 20 21  1  0  0  0  0
 20 22  1  0  0  0  0
 22 23  2  0  0  0  0
 22 24  1  0  0  0  0
 24 25  2  0  0  0  0
 26 27  2  0  0  0  0
 26 32  1  0  0  0  0
 27 28  1  0  0  0  0
 28 29  1  0  0  0  0
 28 30  2  0  0  0  0
 30 31  1  0  0  0  0
 31 32  2  0  0  0  0
 31 42  1  0  0  0  0
 32 33  1  0  0  0  0
 33 34  2  0  0  0  0
 34 35  1  0  0  0  0
 34 41  1  0  0  0  0
 35 36  2  0  0  0  0
 35 37  1  0  0  0  0
 37 38  2  0  0  0  0
 39 37  1  6  0  0  0
 39 40  1  0  0  0  0
 39 44  1  0  0  0  0
 40 41  1  0  0  0  0
 41 42  2  0  0  0  0
 42 43  1  0  0  0  0
 44 45  1  6  0  0  0
 44 46  1  0  0  0  0
 44 47  1  0  0  0  0
 46 47  1  0  0  0  0
 47 48  2  0  0  0  0
 49 50  2  0  0  0  0
 49 51  1  0  0  0  0
 51 52  2  0  0  0  0
 51 53  1  0  0  0  0
 53 54  2  0  0  0  0
M  CHG  4  21   1  24   1  25   1  28   1
M  END
$$$$