
 OpenBabel11222003153D

 52 60  0  0  1  0  0  0  0  0999 V2000
    2.7136    6.1808   -6.2389 O   0  0  0  0  0  0  0  0  0  0  0  0
    2.2752    4.8957   -6.0577 C   0  0  0  0  0  0  0  0  0  0  0  0
    2.5020    4.2129   -4.9302 C   0  0  0  0  0  0  0  0  0  0  0  0
    3.2487    4.7559   -3.9026 O   0  0  0  0  0  0  0  0  0  0  0  0
    2.7716    4.4175   -2.6020 C   0  0  2  0  0  0  0  0  0  0  0  0
    3.5714    5.0481   -1.5928 O   0  0  0  0  0  0  0  0  0  0  0  0
    3.6238    6.4363   -1.5965 C   0  0  0  0  0  0  0  0  0  0  0  0
    4.7230    7.0876   -1.1644 C   0  0  0  0  0  0  0  0  0  0  0  0
    4.7979    8.4688   -1.0502 O   0  0  0  0  0  0  0  0  0  0  0  0
    3.6636    9.2382   -1.2997 C   0  0  0  0  0  0  0  0  0  0  0  0
    2.5193    8.6841   -1.7331 C   0  0  0  0  0  0  0  0  0  0  0  0
    2.3945    7.2118   -1.9856 C   0  0  0  0  0  0  0  0  0  0  0  0
    1.3017    9.5110   -1.9996 C   0  0  3  0  0  0  0  0  0  0  0  0
    0.2690    9.0154   -1.1540 O   0  0  0  0  0  0  0  0  0  0  0  0
   -0.9093    9.6774   -1.0737 C   0  0  0  0  0  0  0  0  0  0  0  0
   -1.9016    9.1497   -0.5904 O   0  0  0  0  0  0  0  0  0  0  0  0
   -0.9315   10.9505   -1.5265 O   0  0  0  0  0  0  0  0  0  0  0  0
    0.2220   11.6668   -1.9578 C   0  0  3  0  0  0  0  0  0  0  0  0
    1.4872   10.9439   -1.6959 C   0  0  0  0  0  0  0  0  0  0  0  0
    2.6612   11.4509   -1.2606 C   0  0  0  0  0  0  0  0  0  0  0  0
    3.7653   10.6051   -1.0718 O   0  0  0  0  0  0  0  0  0  0  0  0
    2.9310   12.8770   -0.9564 C   0  0  0  0  0  0  0  0  0  0  0  0
    3.4398   13.7670   -1.9660 O   0  0  0  0  0  0  0  0  0  0  0  0
    2.1258   13.9733   -1.4217 O   0  0  0  0  0  0  0  0  0  0  0  0
    0.1266   11.8550   -3.3596 O   0  0  0  0  0  0  0  0  0  0  0  0
    5.9357    6.3716   -0.7379 C   0  0  0  0  0  0  0  0  0  0  0  0
    6.0551    6.0172    0.5966 C   0  0  0  0  0  0  0  0  0  0  0  0
    7.0763    5.2786    1.0648 N   0  0  0  0  0  0  0  0  0  0  0  0
    8.0219    4.8202    0.1945 N   0  0  0  0  0  0  0  0  0  0  0  0
    7.9632    5.1187   -1.1103 C   0  0  0  0  0  0  0  0  0  0  0  0
    6.9398    5.9374   -1.6320 C   0  0  0  0  0  0  0  0  0  0  0  0
    6.9669    6.2617   -3.0094 C   0  0  0  0  0  0  0  0  0  0  0  0
    7.9423    5.7170   -3.8482 C   0  0  0  0  0  0  0  0  0  0  0  0
    8.8816    4.8303   -3.3422 C   0  0  0  0  0  0  0  0  0  0  0  0
    8.9130    4.5790   -1.9718 C   0  0  0  0  0  0  0  0  0  0  0  0
    9.7910    4.1565   -4.1080 O   0  0  0  0  0  0  0  0  0  0  0  0
    9.4467    4.0016   -5.4949 C   0  0  2  0  0  0  0  0  0  0  0  0
    8.9457    5.2729   -6.1331 C   0  0  0  0  0  0  0  0  0  0  0  0
    9.2167    5.6349   -7.2693 O   0  0  0  0  0  0  0  0  0  0  0  0
    7.9733    6.0520   -5.2772 C   0  0  0  0  0  0  0  0  0  0  0  0
    7.2431    6.9012   -5.7623 O   0  0  0  0  0  0  0  0  0  0  0  0
    8.4762    2.8663   -5.6963 C   0  0  1  0  0  0  0  0  0  0  0  0
    7.2007    2.9535   -5.0217 O   0  0  0  0  0  0  0  0  0  0  0  0
    8.3665    2.3736   -7.0385 O   0  0  0  0  0  0  0  0  0  0  0  0
    8.9344    1.5547   -6.1340 C   0  0  0  0  0  0  0  0  0  0  0  0
   10.0125    1.0116   -6.1393 O   0  0  0  0  0  0  0  0  0  0  0  0
    2.8102    2.9115   -2.3595 C   0  0  0  0  0  0  0  0  0  0  0  0
    2.9934    2.3592   -1.2845 O   0  0  0  0  0  0  0  0  0  0  0  0
    2.4975    2.1038   -3.5967 C   0  0  0  0  0  0  0  0  0  0  0  0
    2.6834    0.8977   -3.6254 O   0  0  0  0  0  0  0  0  0  0  0  0
    1.9971    2.8202   -4.8292 C   0  0  0  0  0  0  0  0  0  0  0  0
    1.2473    2.2918   -5.6307 O   0  0  0  0  0  0  0  0  0  0  0  0
  1  2  1  0  0  0  0
  2  3  2  0  0  0  0
  3  4  1  0  0  0  0
  3 51  1  0  0  0  0
  4  5  1  0  0  0  0
  5  6  1  1  0  0  0
  5 47  1  0  0  0  0
  6  7  1  0  0  0  0
  7  8  2  0  0  0  0
  7 12  1  0  0  0  0
  8  9  1  0  0  0  0
  8 26  1  0  0  0  0
  9 10  1  0  0  0  0
 10 11  2  0  0  0  0
 10 21  1  0  0  0  0
 11 12  1  0  0  0  0
 11 13  1  0  0  0  0
 13 14  1  0  0  0  0
 13 19  1  0  0  0  0
 14 15  1  0  0  0  0
 15 16  2  0  0  0  0
 15 17  1  0  0  0  0
 17 18  1  0  0  0  0
 18 19  1  0  0  0  0
 18 25  1  0  0  0  0
 19 20  2  0  0  0  0
 20 21  1  0  0  0  0
 20 22  1  0  0  0  0
 22 23  1  0  0  0  0
 22 24  1  0  0  0  0
 23 24  1  0  0  0  0
 26 27  2  0  0  0  0
 26 31  1  0  0  0  0
 27 28  1  0  0  0  0
 28 29  2  0  0  0  0
 29 30  1  0  0  0  0
 30 31  2  0  0  0  0
 30 35  1  0  0  0  0
 31 32  1  0  0  0  0
 32 33  2  0  0  0  0
 33 34  1  0  0  0  0
 33 40  1  0  0  0  0
 34 35  2  0  0  0  0
 34 36  1  0  0  0  0
 37 36  1  1  0  0  0
 37 38  1  0  0  0  0
 37 42  1  0  0  0  0
 38 39  2  0  0  0  0
 38 40  1  0  0  0  0
 40 41  2  0  0  0  0
 42 43  1  1  0  0  0
 42 44  1  0  0  0  0
 42 45  1  0  0  0  0
 44 45  1  0  0  0  0
 45 46  2  0  0  0  0
 47 48  2  0  0  0  0
 47 49  1  0  0  0  0
 49 50  2  0  0  0  0
 49 51  1  0  0  0  0
 51 52  2  0  0  0  0
M  END
$$$$