
 OpenBabel11212021303D

 54 62  0  0  1  0  0  0  0  0999 V2000
   -2.2706    0.3454   -4.9063 O   0  0  0  0  0  0  0  0  0  0  0  0
   -1.9658    0.5816   -3.5901 C   0  0  0  0  0  0  0  0  0  0  0  0
   -0.9518   -0.0313   -2.9680 C   0  0  0  0  0  0  0  0  0  0  0  0
   -0.1969   -0.9799   -3.6364 O   0  0  0  0  0  0  0  0  0  0  0  0
    1.1713   -1.0415   -3.2489 C   0  0  2  0  0  0  0  0  0  0  0  0
    1.8862   -2.0071   -4.0396 O   0  0  0  0  0  0  0  0  0  0  0  0
    1.9175   -1.7440   -5.4058 C   0  0  0  0  0  0  0  0  0  0  0  0
    2.0009   -2.7466   -6.3052 C   0  0  0  0  0  0  0  0  0  0  0  0
    2.1344   -2.5358   -7.6723 O   0  0  0  0  0  0  0  0  0  0  0  0
    2.3117   -1.2398   -8.1388 C   0  0  0  0  0  0  0  0  0  0  0  0
    2.2905   -0.1737   -7.3202 C   0  0  0  0  0  0  0  0  0  0  0  0
    2.0025   -0.3056   -5.8629 C   0  0  0  0  0  0  0  0  0  0  0  0
    2.5348    1.2203   -7.8540 C   0  0  3  0  0  0  0  0  0  0  0  0
    3.6625    1.7531   -7.1496 O   0  0  0  0  0  0  0  0  0  0  0  0
    4.3177    2.8226   -7.6374 C   0  0  0  0  0  0  0  0  0  0  0  0
    5.2152    3.3903   -6.9205 N   0  0  0  0  0  0  0  0  0  0  0  0
    4.0480    3.2737   -8.8725 O   0  0  0  0  0  0  0  0  0  0  0  0
    3.1097    2.6493   -9.7399 C   0  0  3  0  0  0  0  0  0  0  0  0
    2.8110    1.2643   -9.3158 C   0  0  0  0  0  0  0  0  0  0  0  0
    2.7861    0.1532  -10.0845 C   0  0  0  0  0  0  0  0  0  0  0  0
    2.5320   -1.0714   -9.4808 N   0  0  0  0  0  0  0  0  0  0  0  0
    3.0111    0.1370  -11.5479 C   0  0  0  0  0  0  0  0  0  0  0  0
    4.3286    0.0221  -12.1049 O   0  0  0  0  0  0  0  0  0  0  0  0
    3.3907   -1.0631  -12.2448 O   0  0  0  0  0  0  0  0  0  0  0  0
    1.8974    3.3818   -9.7122 O   0  0  0  0  0  0  0  0  0  0  0  0
    2.1538   -4.1529   -5.8998 C   0  0  0  0  0  0  0  0  0  0  0  0
    3.4619   -4.5980   -5.7624 C   0  0  0  0  0  0  0  0  0  0  0  0
    3.7154   -5.8361   -5.3420 N   0  3  0  0  0  0  0  0  0  0  0  0
    4.9946   -6.2394   -5.2273 F   0  0  0  0  0  0  0  0  0  0  0  0
    2.7603   -6.6844   -5.0229 N   0  0  0  0  0  0  0  0  0  0  0  0
    1.4726   -6.3229   -5.1200 C   0  0  0  0  0  0  0  0  0  0  0  0
    1.1078   -5.0442   -5.5909 C   0  0  0  0  0  0  0  0  0  0  0  0
   -0.2654   -4.7268   -5.7195 C   0  0  0  0  0  0  0  0  0  0  0  0
   -1.2555   -5.6399   -5.3295 C   0  0  0  0  0  0  0  0  0  0  0  0
   -2.6764   -5.2884   -5.4468 C   0  0  0  0  0  0  0  0  0  0  0  0
   -3.0321   -4.2590   -5.9950 O   0  0  0  0  0  0  0  0  0  0  0  0
   -3.6719   -6.2593   -4.8555 C   0  0  0  0  0  0  0  0  0  0  0  0
   -4.8489   -6.2246   -5.1810 O   0  0  0  0  0  0  0  0  0  0  0  0
   -3.0814   -7.2179   -3.8520 C   0  0  1  0  0  0  0  0  0  0  0  0
   -1.8177   -7.7536   -4.2841 O   0  0  0  0  0  0  0  0  0  0  0  0
   -0.9044   -6.8717   -4.7974 C   0  0  0  0  0  0  0  0  0  0  0  0
    0.4557   -7.2138   -4.7345 C   0  0  0  0  0  0  0  0  0  0  0  0
    0.9466   -8.9306   -4.0388 Br  0  0  0  0  0  0  0  0  0  0  0  0
   -3.0542   -6.6411   -2.4549 C   0  0  1  0  0  0  0  0  0  0  0  0
   -4.3337   -6.2899   -1.8938 O   0  0  0  0  0  0  0  0  0  0  0  0
   -2.1517   -7.2724   -1.5339 O   0  0  0  0  0  0  0  0  0  0  0  0
   -1.9053   -5.9991   -1.8500 C   0  0  0  0  0  0  0  0  0  0  0  0
   -0.9198   -5.4481   -2.3183 O   0  0  0  0  0  0  0  0  0  0  0  0
    1.2500   -1.4039   -1.7817 C   0  0  0  0  0  0  0  0  0  0  0  0
    1.8447   -2.3528   -1.2959 O   0  0  0  0  0  0  0  0  0  0  0  0
    0.5110   -0.3983   -0.9388 C   0  0  0  0  0  0  0  0  0  0  0  0
    0.9430   -0.0948    0.1606 O   0  0  0  0  0  0  0  0  0  0  0  0
   -0.6950    0.3045   -1.5357 C   0  0  0  0  0  0  0  0  0  0  0  0
   -1.3634    1.0929   -0.8893 O   0  0  0  0  0  0  0  0  0  0  0  0
  1  2  1  0  0  0  0
  2  3  2  0  0  0  0
  3  4  1  0  0  0  0
  3 53  1  0  0  0  0
  4  5  1  0  0  0  0
  5  6  1  6  0  0  0
  5 49  1  0  0  0  0
  6  7  1  0  0  0  0
  7  8  2  0  0  0  0
  7 12  1  0  0  0  0
  8  9  1  0  0  0  0
  8 26  1  0  0  0  0
  9 10  1  0  0  0  0
 10 11  2  0  0  0  0
 10 21  1  0  0  0  0
 11 12  1  0  0  0  0
 11 13  1  0  0  0  0
 13 14  1  0  0  0  0
 13 19  1  0  0  0  0
 14 15  1  0  0  0  0
 15 16  2  0  0  0  0
 15 17  1  0  0  0  0
 17 18  1  0  0  0  0
 18 19  1  0  0  0  0
 18 25  1  0  0  0  0
 19 20  2  0  0  0  0
 20 21  1  0  0  0  0
 20 22  1  0  0  0  0
 22 23  1  0  0  0  0
 22 24  1  0  0  0  0
 23 24  1  0  0  0  0
 26 27  2  0  0  0  0
 26 32  1  0  0  0  0
 27 28  1  0  0  0  0
 28 29  1  0  0  0  0
 28 30  2  0  0  0  0
 30 31  1  0  0  0  0
 31 32  2  0  0  0  0
 31 42  1  0  0  0  0
 32 33  1  0  0  0  0
 33 34  2  0  0  0  0
 34 35  1  0  0  0  0
 34 41  1  0  0  0  0
 35 36  2  0  0  0  0
 35 37  1  0  0  0  0
 37 38  2  0  0  0  0
 39 37  1  6  0  0  0
 39 40  1  0  0  0  0
 39 44  1  0  0  0  0
 40 41  1  0  0  0  0
 41 42  2  0  0  0  0
 42 43  1  0  0  0  0
 44 45  1  1  0  0  0
 44 46  1  0  0  0  0
 44 47  1  0  0  0  0
 46 47  1  0  0  0  0
 47 48  2  0  0  0  0
 49 50  2  0  0  0  0
 49 51  1  0  0  0  0
 51 52  2  0  0  0  0
 51 53  1  0  0  0  0
 53 54  2  0  0  0  0
M  CHG  1  28   1
M  END
$$$$