
 OpenBabel11272001503D

 54 62  0  0  1  0  0  0  0  0999 V2000
    3.3544    1.6270    0.7257 F   0  0  0  0  0  0  0  0  0  0  0  0
    2.0259    1.8262    0.8069 C   0  0  0  0  0  0  0  0  0  0  0  0
    1.3095    2.2066   -0.2544 C   0  0  0  0  0  0  0  0  0  0  0  0
    1.9162    2.4678   -1.4752 O   0  0  0  0  0  0  0  0  0  0  0  0
    1.1390    2.1298   -2.6199 C   0  0  2  0  0  0  0  0  0  0  0  0
    1.8899    2.3422   -3.8416 O   0  0  0  0  0  0  0  0  0  0  0  0
    2.0704    3.6186   -4.3670 C   0  0  0  0  0  0  0  0  0  0  0  0
    2.2273    3.8193   -5.7028 C   0  0  0  0  0  0  0  0  0  0  0  0
    2.3314    5.1189   -6.2407 O   0  0  0  0  0  0  0  0  0  0  0  0
    2.2734    6.2473   -5.4069 C   0  0  0  0  0  0  0  0  0  0  0  0
    2.2348    6.1084   -4.0687 C   0  0  0  0  0  0  0  0  0  0  0  0
    2.1444    4.7731   -3.4006 C   0  0  0  0  0  0  0  0  0  0  0  0
    2.2628    7.2846   -3.1338 C   0  0  3  0  0  0  0  0  0  0  0  0
    3.4228    7.1592   -2.3414 O   0  0  0  0  0  0  0  0  0  0  0  0
    3.6783    8.1660   -1.4612 C   0  0  0  0  0  0  0  0  0  0  0  0
    4.4061    7.9763   -0.5009 O   0  0  0  0  0  0  0  0  0  0  0  0
    3.0926    9.3639   -1.7168 O   0  0  0  0  0  0  0  0  0  0  0  0
    2.5478    9.6551   -2.9109 C   0  0  0  0  0  0  0  0  0  0  0  0
    2.1400   10.7682   -3.2049 O   0  0  0  0  0  0  0  0  0  0  0  0
    2.3910    8.5515   -3.8568 C   0  0  0  0  0  0  0  0  0  0  0  0
    2.3679    8.6645   -5.2036 C   0  0  0  0  0  0  0  0  0  0  0  0
    2.2779    7.5062   -5.9882 O   0  3  0  0  0  0  0  0  0  0  0  0
    2.5003    9.9409   -5.9429 C   0  0  3  0  0  0  0  0  0  0  0  0
    2.4887    9.8600   -7.3674 N   0  0  0  0  0  0  0  0  0  0  0  0
    3.5973   10.0461   -6.8369 N   0  0  0  0  0  0  0  0  0  0  0  0
    2.3288    2.6838   -6.7020 C   0  0  0  0  0  0  0  0  0  0  0  0
    2.9569    1.5051   -6.2907 C   0  0  0  0  0  0  0  0  0  0  0  0
    3.0355    0.4314   -7.0796 N   0  3  0  0  0  0  0  0  0  0  0  0
    3.6205   -0.6860   -6.6065 F   0  0  0  0  0  0  0  0  0  0  0  0
    2.5622    0.4131   -8.3017 N   0  0  0  0  0  0  0  0  0  0  0  0
    1.9832    1.5016   -8.8066 C   0  0  0  0  0  0  0  0  0  0  0  0
    1.8562    2.6932   -8.0451 C   0  0  0  0  0  0  0  0  0  0  0  0
    1.2456    3.7937   -8.6830 C   0  0  0  0  0  0  0  0  0  0  0  0
    0.7458    3.7072   -9.9906 C   0  0  0  0  0  0  0  0  0  0  0  0
    0.1287    4.8809  -10.6025 C   0  0  0  0  0  0  0  0  0  0  0  0
    0.2482    5.9745  -10.0672 O   0  0  0  0  0  0  0  0  0  0  0  0
   -0.6266    4.6748  -11.8955 C   0  0  0  0  0  0  0  0  0  0  0  0
   -1.0627    5.6424  -12.5008 O   0  0  0  0  0  0  0  0  0  0  0  0
   -0.8171    3.2275  -12.3062 C   0  0  1  0  0  0  0  0  0  0  0  0
    0.2664    2.3515  -11.9414 O   0  0  0  0  0  0  0  0  0  0  0  0
    0.8173    2.5251  -10.6985 C   0  0  0  0  0  0  0  0  0  0  0  0
    1.4894    1.4291  -10.1289 C   0  0  0  0  0  0  0  0  0  0  0  0
    1.4409    0.1856  -10.8037 N   0  0  0  0  0  0  0  0  0  0  0  0
   -2.1723    2.6995  -11.8919 C   0  0  1  0  0  0  0  0  0  0  0  0
   -3.3149    3.3658  -12.4598 O   0  0  0  0  0  0  0  0  0  0  0  0
   -2.2933    1.2749  -11.7834 O   0  0  0  0  0  0  0  0  0  0  0  0
   -2.4097    1.9821  -10.6538 C   0  0  0  0  0  0  0  0  0  0  0  0
   -1.7942    1.9539   -9.5998 O   0  0  0  0  0  0  0  0  0  0  0  0
   -0.2437    2.7723   -2.6126 C   0  0  0  0  0  0  0  0  0  0  0  0
   -0.7273    3.4164   -3.5336 O   0  0  0  0  0  0  0  0  0  0  0  0
   -0.9577    2.6011   -1.3033 C   0  0  0  0  0  0  0  0  0  0  0  0
   -2.1760    2.6247   -1.2883 O   0  0  0  0  0  0  0  0  0  0  0  0
   -0.1543    2.3841   -0.0398 C   0  0  0  0  0  0  0  0  0  0  0  0
   -0.6870    2.3702    1.0553 O   0  0  0  0  0  0  0  0  0  0  0  0
  1  2  1  0  0  0  0
  2  3  2  0  0  0  0
  3  4  1  0  0  0  0
  3 53  1  0  0  0  0
  4  5  1  0  0  0  0
  5  6  1  6  0  0  0
  5 49  1  0  0  0  0
  6  7  1  0  0  0  0
  7  8  2  0  0  0  0
  7 12  1  0  0  0  0
  8  9  1  0  0  0  0
  8 26  1  0  0  0  0
  9 10  1  0  0  0  0
 10 11  2  0  0  0  0
 10 22  1  0  0  0  0
 11 12  1  0  0  0  0
 11 13  1  0  0  0  0
 13 14  1  0  0  0  0
 13 20  1  0  0  0  0
 14 15  1  0  0  0  0
 15 16  2  0  0  0  0
 15 17  1  0  0  0  0
 17 18  1  0  0  0  0
 18 19  2  0  0  0  0
 18 20  1  0  0  0  0
 20 21  2  0  0  0  0
 21 22  1  0  0  0  0
 21 23  1  0  0  0  0
 23 24  1  0  0  0  0
 23 25  1  0  0  0  0
 24 25  2  0  0  0  0
 26 27  2  0  0  0  0
 26 32  1  0  0  0  0
 27 28  1  0  0  0  0
 28 29  1  0  0  0  0
 28 30  2  0  0  0  0
 30 31  1  0  0  0  0
 31 32  2  0  0  0  0
 31 42  1  0  0  0  0
 32 33  1  0  0  0  0
 33 34  2  0  0  0  0
 34 35  1  0  0  0  0
 34 41  1  0  0  0  0
 35 36  2  0  0  0  0
 35 37  1  0  0  0  0
 37 38  2  0  0  0  0
 39 37  1  1  0  0  0
 39 40  1  0  0  0  0
 39 44  1  0  0  0  0
 40 41  1  0  0  0  0
 41 42  2  0  0  0  0
 42 43  1  0  0  0  0
 44 45  1  6  0  0  0
 44 46  1  0  0  0  0
 44 47  1  0  0  0  0
 46 47  1  0  0  0  0
 47 48  2  0  0  0  0
 49 50  2  0  0  0  0
 49 51  1  0  0  0  0
 51 52  2  0  0  0  0
 51 53  1  0  0  0  0
 53 54  2  0  0  0  0
M  CHG  2  22   1  28   1
M  END
$$$$