
 OpenBabel11222010303D

 54 62  0  0  1  0  0  0  0  0999 V2000
   -1.8147    2.4660   -1.7707 O   0  0  0  0  0  0  0  0  0  0  0  0
   -1.4215    2.6953   -3.0635 C   0  0  0  0  0  0  0  0  0  0  0  0
   -0.2697    3.3014   -3.3815 C   0  0  0  0  0  0  0  0  0  0  0  0
    0.5782    3.7860   -2.3981 O   0  0  0  0  0  0  0  0  0  0  0  0
    1.9675    3.7395   -2.7058 C   0  0  2  0  0  0  0  0  0  0  0  0
    2.7519    4.1891   -1.5690 O   0  0  0  0  0  0  0  0  0  0  0  0
    2.8365    5.5507   -1.3012 C   0  0  0  0  0  0  0  0  0  0  0  0
    3.9333    6.0724   -0.7104 C   0  0  0  0  0  0  0  0  0  0  0  0
    4.0859    7.4444   -0.4686 O   0  0  0  0  0  0  0  0  0  0  0  0
    3.0822    8.3379   -0.8575 C   0  0  0  0  0  0  0  0  0  0  0  0
    1.9223    7.8944   -1.3728 C   0  0  0  0  0  0  0  0  0  0  0  0
    1.6567    6.4391   -1.6269 C   0  0  0  0  0  0  0  0  0  0  0  0
    0.8113    8.8300   -1.7615 C   0  0  3  0  0  0  0  0  0  0  0  0
   -0.2778    8.5534   -0.8998 O   0  0  0  0  0  0  0  0  0  0  0  0
   -1.3811    9.3450   -0.9810 C   0  0  0  0  0  0  0  0  0  0  0  0
   -2.4287    9.0262   -0.4445 O   0  0  0  0  0  0  0  0  0  0  0  0
   -1.2366   10.5044   -1.6644 O   0  0  0  0  0  0  0  0  0  0  0  0
    0.0224   11.0974   -1.9562 C   0  0  3  0  0  0  0  0  0  0  0  0
    1.1673   10.2485   -1.5349 C   0  0  0  0  0  0  0  0  0  0  0  0
    2.3541   10.6383   -1.0189 C   0  0  0  0  0  0  0  0  0  0  0  0
    3.3090    9.6863   -0.6739 O   0  3  0  0  0  0  0  0  0  0  0  0
    2.7533   12.0519   -0.7881 C   0  0  0  0  0  0  0  0  0  0  0  0
    3.6520   12.3833    0.2839 O   0  0  0  0  0  0  0  0  0  0  0  0
    4.0902   12.4857   -1.0830 O   0  0  0  0  0  0  0  0  0  0  0  0
    0.1598   11.2341   -3.3546 O   0  0  0  0  0  0  0  0  0  0  0  0
    5.0164    5.2463   -0.1228 C   0  0  0  0  0  0  0  0  0  0  0  0
    4.8701    4.9062    1.2234 C   0  0  0  0  0  0  0  0  0  0  0  0
    5.8433    4.2688    1.8808 N   0  3  0  0  0  0  0  0  0  0  0  0
    5.6714    3.9645    3.1817 F   0  0  0  0  0  0  0  0  0  0  0  0
    6.9890    3.9602    1.3146 N   0  0  0  0  0  0  0  0  0  0  0  0
    7.1725    4.2010    0.0140 C   0  0  0  0  0  0  0  0  0  0  0  0
    6.1896    4.8201   -0.7860 C   0  0  0  0  0  0  0  0  0  0  0  0
    6.4396    4.9391   -2.1783 C   0  0  0  0  0  0  0  0  0  0  0  0
    7.6427    4.4701   -2.7444 C   0  0  0  0  0  0  0  0  0  0  0  0
    7.8317    4.3520   -4.2385 C   0  0  3  0  0  0  0  0  0  0  0  0
    7.3289    3.1538   -4.6551 F   0  0  0  0  0  0  0  0  0  0  0  0
    9.2995    4.4576   -4.6364 C   0  0  3  0  0  0  0  0  0  0  0  0
    9.4528    4.1148   -5.9415 F   0  0  0  0  0  0  0  0  0  0  0  0
   10.1450    3.6481   -3.6941 C   0  0  0  0  0  0  0  0  0  0  0  0
    9.8576    3.4573   -2.4395 N   0  0  0  0  0  0  0  0  0  0  0  0
    8.6394    3.9337   -1.9267 C   0  0  0  0  0  0  0  0  0  0  0  0
    8.3785    3.8145   -0.5598 C   0  0  0  0  0  0  0  0  0  0  0  0
    9.3178    3.2788    0.2391 F   0  0  0  0  0  0  0  0  0  0  0  0
   11.4524    3.1865   -4.2024 C   0  0  1  0  0  0  0  0  0  0  0  0
   12.5509    4.1039   -4.0084 O   0  0  0  0  0  0  0  0  0  0  0  0
   11.7928    1.8244   -3.9244 O   0  0  0  0  0  0  0  0  0  0  0  0
   11.5864    2.1472   -5.2081 C   0  0  0  0  0  0  0  0  0  0  0  0
   10.8079    1.6656   -6.0159 O   0  0  0  0  0  0  0  0  0  0  0  0
    2.2986    4.4525   -4.0180 C   0  0  0  0  0  0  0  0  0  0  0  0
    3.1678    5.3054   -4.1602 O   0  0  0  0  0  0  0  0  0  0  0  0
    1.3742    4.0774   -5.1422 C   0  0  0  0  0  0  0  0  0  0  0  0
    1.7340    4.2749   -6.2909 O   0  0  0  0  0  0  0  0  0  0  0  0
    0.0159    3.4876   -4.8341 C   0  0  0  0  0  0  0  0  0  0  0  0
   -0.7706    3.2135   -5.7240 O   0  0  0  0  0  0  0  0  0  0  0  0
  1  2  1  0  0  0  0
  2  3  2  0  0  0  0
  3  4  1  0  0  0  0
  3 53  1  0  0  0  0
  4  5  1  0  0  0  0
  5  6  1  1  0  0  0
  5 49  1  0  0  0  0
  6  7  1  0  0  0  0
  7  8  2  0  0  0  0
  7 12  1  0  0  0  0
  8  9  1  0  0  0  0
  8 26  1  0  0  0  0
  9 10  1  0  0  0  0
 10 11  2  0  0  0  0
 10 21  1  0  0  0  0
 11 12  1  0  0  0  0
 11 13  1  0  0  0  0
 13 14  1  0  0  0  0
 13 19  1  0  0  0  0
 14 15  1  0  0  0  0
 15 16  2  0  0  0  0
 15 17  1  0  0  0  0
 17 18  1  0  0  0  0
 18 19  1  0  0  0  0
 18 25  1  0  0  0  0
 19 20  2  0  0  0  0
 20 21  1  0  0  0  0
 20 22  1  0  0  0  0
 22 23  1  0  0  0  0
 22 24  1  0  0  0  0
 23 24  1  0  0  0  0
 26 27  2  0  0  0  0
 26 32  1  0  0  0  0
 27 28  1  0  0  0  0
 28 29  1  0  0  0  0
 28 30  2  0  0  0  0
 30 31  1  0  0  0  0
 31 32  2  0  0  0  0
 31 42  1  0  0  0  0
 32 33  1  0  0  0  0
 33 34  2  0  0  0  0
 34 35  1  0  0  0  0
 34 41  1  0  0  0  0
 35 36  1  0  0  0  0
 35 37  1  0  0  0  0
 37 38  1  0  0  0  0
 37 39  1  0  0  0  0
 39 40  2  0  0  0  0
 40 41  1  0  0  0  0
 41 42  2  0  0  0  0
 42 43  1  0  0  0  0
 44 39  1  1  0  0  0
 44 45  1  0  0  0  0
 44 46  1  0  0  0  0
 44 47  1  0  0  0  0
 46 47  1  0  0  0  0
 47 48  2  0  0  0  0
 49 50  2  0  0  0  0
 49 51  1  0  0  0  0
 51 52  2  0  0  0  0
 51 53  1  0  0  0  0
 53 54  2  0  0  0  0
M  CHG  2  21   1  28   1
M  END
$$$$