
 OpenBabel11252023493D

 54 62  0  0  1  0  0  0  0  0999 V2000
    0.6118   -0.4569    7.3024 O   0  0  0  0  0  0  0  0  0  0  0  0
    0.5652   -1.2718    6.1991 C   0  0  0  0  0  0  0  0  0  0  0  0
    0.3638   -0.7965    4.9652 C   0  0  0  0  0  0  0  0  0  0  0  0
    0.1530    0.5502    4.7407 O   0  0  0  0  0  0  0  0  0  0  0  0
    1.0186    1.0149    3.7144 C   0  0  2  0  0  0  0  0  0  0  0  0
    0.9446    2.4427    3.5698 O   0  0  0  0  0  0  0  0  0  0  0  0
    1.3429    3.2588    4.6194 C   0  0  0  0  0  0  0  0  0  0  0  0
    1.3234    4.5960    4.4588 C   0  0  0  0  0  0  0  0  0  0  0  0
    1.6273    5.5133    5.4456 O   0  0  0  0  0  0  0  0  0  0  0  0
    1.8930    5.0522    6.7151 C   0  0  0  0  0  0  0  0  0  0  0  0
    1.9885    3.7080    6.9978 C   0  0  0  0  0  0  0  0  0  0  0  0
    1.7501    2.6716    5.9471 C   0  0  0  0  0  0  0  0  0  0  0  0
    2.2521    3.3716    8.3190 C   0  0  0  0  0  0  0  0  0  0  0  0
    2.3032    2.0158    8.6584 O   0  0  0  0  0  0  0  0  0  0  0  0
    2.7291    1.5740    9.9100 C   0  0  0  0  0  0  0  0  0  0  0  0
    2.8258    0.3780   10.1545 O   0  0  0  0  0  0  0  0  0  0  0  0
    3.1101    2.5323   10.7897 O   0  0  0  0  0  0  0  0  0  0  0  0
    2.5831    3.8512   10.7028 C   0  0  3  0  0  0  0  0  0  0  0  0
    2.3897    4.3247    9.3068 C   0  0  0  0  0  0  0  0  0  0  0  0
    2.2345    5.6672    8.9500 C   0  0  0  0  0  0  0  0  0  0  0  0
    2.0012    6.0165    7.6502 N   0  0  0  0  0  0  0  0  0  0  0  0
    2.2635    6.7690    9.9819 C   0  0  0  0  0  0  0  0  0  0  0  0
    3.5462    7.1608   10.4920 O   0  0  0  0  0  0  0  0  0  0  0  0
    2.8237    8.0346    9.6015 O   0  0  0  0  0  0  0  0  0  0  0  0
    1.3261    3.9054   11.3537 O   0  0  0  0  0  0  0  0  0  0  0  0
    0.9208    5.2221    3.1928 C   0  0  0  0  0  0  0  0  0  0  0  0
   -0.4265    5.4992    3.0110 C   0  0  0  0  0  0  0  0  0  0  0  0
   -0.8526    6.0630    1.8795 N   0  3  0  0  0  0  0  0  0  0  0  0
   -2.1642    6.3286    1.7349 F   0  0  0  0  0  0  0  0  0  0  0  0
   -0.0371    6.3809    0.8933 N   0  0  0  0  0  0  0  0  0  0  0  0
    1.2759    6.1387    1.0102 C   0  0  0  0  0  0  0  0  0  0  0  0
    1.8207    5.5482    2.1628 C   0  0  0  0  0  0  0  0  0  0  0  0
    3.2176    5.3154    2.2258 C   0  0  0  0  0  0  0  0  0  0  0  0
    4.0587    5.6744    1.1649 C   0  0  0  0  0  0  0  0  0  0  0  0
    5.4974    5.3913    1.2322 C   0  0  0  0  0  0  0  0  0  0  0  0
    5.9819    4.7954    2.1800 O   0  0  0  0  0  0  0  0  0  0  0  0
    6.3335    5.8407    0.0545 C   0  0  0  0  0  0  0  0  0  0  0  0
    7.4549    5.3933   -0.1311 O   0  0  0  0  0  0  0  0  0  0  0  0
    5.6710    6.8833   -0.8172 C   0  0  1  0  0  0  0  0  0  0  0  0
    4.2663    6.6813   -1.0453 O   0  0  0  0  0  0  0  0  0  0  0  0
    3.5315    6.2770    0.0361 C   0  0  0  0  0  0  0  0  0  0  0  0
    2.1483    6.4818   -0.0300 C   0  0  0  0  0  0  0  0  0  0  0  0
    1.6141    7.0581   -1.1609 O   0  0  0  0  0  0  0  0  0  0  0  0
    5.9092    8.2609   -0.2885 C   0  0  1  0  0  0  0  0  0  0  0  0
    5.4824    8.5149    1.0724 O   0  0  0  0  0  0  0  0  0  0  0  0
    7.1302    8.8754   -0.6885 O   0  0  0  0  0  0  0  0  0  0  0  0
    5.9982    9.4396   -1.1500 C   0  0  0  0  0  0  0  0  0  0  0  0
    5.5455   10.5503   -0.9789 O   0  0  0  0  0  0  0  0  0  0  0  0
    0.5759    0.3923    2.3862 C   0  0  0  0  0  0  0  0  0  0  0  0
    0.5852    1.0296    1.3275 O   0  0  0  0  0  0  0  0  0  0  0  0
    0.1017   -1.0471    2.4536 C   0  0  3  0  0  0  0  0  0  0  0  0
    0.3842   -1.7107    3.7837 C   0  0  0  0  0  0  0  0  0  0  0  0
    0.6003   -2.9130    3.9002 O   0  0  0  0  0  0  0  0  0  0  0  0
   -1.2297   -1.1211    2.1510 F   0  0  0  0  0  0  0  0  0  0  0  0
  1  2  1  0  0  0  0
  2  3  2  0  0  0  0
  3  4  1  0  0  0  0
  3 52  1  0  0  0  0
  4  5  1  0  0  0  0
  5  6  1  6  0  0  0
  5 49  1  0  0  0  0
  6  7  1  0  0  0  0
  7  8  2  0  0  0  0
  7 12  1  0  0  0  0
  8  9  1  0  0  0  0
  8 26  1  0  0  0  0
  9 10  1  0  0  0  0
 10 11  2  0  0  0  0
 10 21  1  0  0  0  0
 11 12  1  0  0  0  0
 11 13  1  0  0  0  0
 13 14  1  0  0  0  0
 13 19  2  0  0  0  0
 14 15  1  0  0  0  0
 15 16  2  0  0  0  0
 15 17  1  0  0  0  0
 17 18  1  0  0  0  0
 18 19  1  0  0  0  0
 18 25  1  0  0  0  0
 19 20  1  0  0  0  0
 20 21  2  0  0  0  0
 20 22  1  0  0  0  0
 22 23  1  0  0  0  0
 22 24  1  0  0  0  0
 23 24  1  0  0  0  0
 26 27  2  0  0  0  0
 26 32  1  0  0  0  0
 27 28  1  0  0  0  0
 28 29  1  0  0  0  0
 28 30  2  0  0  0  0
 30 31  1  0  0  0  0
 31 32  2  0  0  0  0
 31 42  1  0  0  0  0
 32 33  1  0  0  0  0
 33 34  2  0  0  0  0
 34 35  1  0  0  0  0
 34 41  1  0  0  0  0
 35 36  2  0  0  0  0
 35 37  1  0  0  0  0
 37 38  2  0  0  0  0
 39 37  1  1  0  0  0
 39 40  1  0  0  0  0
 39 44  1  0  0  0  0
 40 41  1  0  0  0  0
 41 42  2  0  0  0  0
 42 43  1  0  0  0  0
 44 45  1  1  0  0  0
 44 46  1  0  0  0  0
 44 47  1  0  0  0  0
 46 47  1  0  0  0  0
 47 48  2  0  0  0  0
 49 50  2  0  0  0  0
 49 51  1  0  0  0  0
 51 52  1  0  0  0  0
 51 54  1  0  0  0  0
 52 53  2  0  0  0  0
M  CHG  1  28   1
M  END
$$$$