
 OpenBabel11142001323D

 52 60  0  0  1  0  0  0  0  0999 V2000
    4.1630   -1.7341    1.8970 O   0  0  0  0  0  0  0  0  0  0  0  0
    2.9848   -2.3993    1.6724 C   0  0  0  0  0  0  0  0  0  0  0  0
    2.9115   -3.6685    1.2636 C   0  0  0  0  0  0  0  0  0  0  0  0
    4.0614   -4.4043    0.9917 O   0  0  0  0  0  0  0  0  0  0  0  0
    3.7775   -5.7528    0.5292 C   0  0  2  0  0  0  0  0  0  0  0  0
    3.0762   -5.7489   -0.7390 O   0  0  0  0  0  0  0  0  0  0  0  0
    2.8227   -6.9690   -1.3682 C   0  0  0  0  0  0  0  0  0  0  0  0
    2.2854   -7.0742   -2.6143 C   0  0  0  0  0  0  0  0  0  0  0  0
    2.1294   -8.3242   -3.2565 O   0  0  0  0  0  0  0  0  0  0  0  0
    2.4416   -9.5066   -2.5818 C   0  0  0  0  0  0  0  0  0  0  0  0
    2.8425   -9.4828   -1.3097 C   0  0  0  0  0  0  0  0  0  0  0  0
    3.0914   -8.2304   -0.5788 C   0  0  0  0  0  0  0  0  0  0  0  0
    3.0462  -10.7628   -0.5812 C   0  0  0  0  0  0  0  0  0  0  0  0
    3.2784  -10.7461    0.6961 N   0  0  0  0  0  0  0  0  0  0  0  0
    3.4535  -11.9469    1.3133 C   0  0  0  0  0  0  0  0  0  0  0  0
    3.5556  -11.8993    2.5892 N   0  0  0  0  0  0  0  0  0  0  0  0
    3.5418  -13.1701    0.7276 N   0  0  0  0  0  0  0  0  0  0  0  0
    3.3116  -13.1875   -0.5310 C   0  0  0  0  0  0  0  0  0  0  0  0
    2.9836  -12.0269   -1.3649 C   0  0  0  0  0  0  0  0  0  0  0  0
    2.6546  -11.9503   -2.6764 C   0  0  0  0  0  0  0  0  0  0  0  0
    2.3416  -10.7059   -3.2437 N   0  0  0  0  0  0  0  0  0  0  0  0
    2.5786  -13.1097   -3.6090 C   0  0  0  0  0  0  0  0  0  0  0  0
    1.3567  -13.4567   -4.2793 O   0  0  0  0  0  0  0  0  0  0  0  0
    2.4623  -12.9245   -5.0340 O   0  0  0  0  0  0  0  0  0  0  0  0
    3.3978  -14.3730   -1.1367 O   0  0  0  0  0  0  0  0  0  0  0  0
    1.6827   -5.9637   -3.4110 C   0  0  0  0  0  0  0  0  0  0  0  0
    0.3638   -5.7964   -3.1753 N   0  0  0  0  0  0  0  0  0  0  0  0
   -0.3400   -4.9733   -3.9166 N   0  0  0  0  0  0  0  0  0  0  0  0
    0.1902   -4.3079   -4.9166 N   0  0  0  0  0  0  0  0  0  0  0  0
    1.4895   -4.4285   -5.1989 C   0  0  0  0  0  0  0  0  0  0  0  0
    2.3166   -5.2670   -4.4444 C   0  0  0  0  0  0  0  0  0  0  0  0
    3.6765   -5.3745   -4.8003 C   0  0  0  0  0  0  0  0  0  0  0  0
    4.1790   -4.6704   -5.9055 C   0  0  0  0  0  0  0  0  0  0  0  0
    3.3740   -3.8116   -6.6590 C   0  0  0  0  0  0  0  0  0  0  0  0
    2.0285   -3.7170   -6.2836 C   0  0  0  0  0  0  0  0  0  0  0  0
    3.8428   -3.0178   -7.7396 N   0  0  0  0  0  0  0  0  0  0  0  0
    5.0428   -3.2096   -8.1921 C   0  0  0  0  0  0  0  0  0  0  0  0
    5.9314   -4.2893   -7.6663 C   0  0  0  0  0  0  0  0  0  0  0  0
    6.8334   -4.7428   -8.3492 O   0  0  0  0  0  0  0  0  0  0  0  0
    5.5685   -4.8868   -6.3275 C   0  0  0  0  0  0  0  0  0  0  0  0
    6.3571   -5.5431   -5.6681 O   0  0  0  0  0  0  0  0  0  0  0  0
    5.6450   -2.3821   -9.2664 C   0  0  1  0  0  0  0  0  0  0  0  0
    5.4476   -2.8636  -10.6200 O   0  0  0  0  0  0  0  0  0  0  0  0
    5.5133   -0.9772   -9.1365 O   0  0  0  0  0  0  0  0  0  0  0  0
    6.7399   -1.4849   -9.0126 C   0  0  0  0  0  0  0  0  0  0  0  0
    7.5315   -1.3731   -8.0801 O   0  0  0  0  0  0  0  0  0  0  0  0
    3.0132   -6.3809    1.6945 C   0  0  0  0  0  0  0  0  0  0  0  0
    3.4175   -7.2689    2.4262 O   0  0  0  0  0  0  0  0  0  0  0  0
    1.6740   -5.7094    1.8711 C   0  0  0  0  0  0  0  0  0  0  0  0
    0.7668   -6.2200    2.4979 O   0  0  0  0  0  0  0  0  0  0  0  0
    1.5765   -4.3295    1.2418 C   0  0  0  0  0  0  0  0  0  0  0  0
    0.5837   -3.9072    0.6849 O   0  0  0  0  0  0  0  0  0  0  0  0
  1  2  1  0  0  0  0
  2  3  2  0  0  0  0
  3  4  1  0  0  0  0
  3 51  1  0  0  0  0
  4  5  1  0  0  0  0
  5  6  1  6  0  0  0
  5 47  1  0  0  0  0
  6  7  1  0  0  0  0
  7  8  2  0  0  0  0
  7 12  1  0  0  0  0
  8  9  1  0  0  0  0
  8 26  1  0  0  0  0
  9 10  1  0  0  0  0
 10 11  2  0  0  0  0
 10 21  1  0  0  0  0
 11 12  1  0  0  0  0
 11 13  1  0  0  0  0
 13 14  2  0  0  0  0
 13 19  1  0  0  0  0
 14 15  1  0  0  0  0
 15 16  2  0  0  0  0
 15 17  1  0  0  0  0
 17 18  2  0  0  0  0
 18 19  1  0  0  0  0
 18 25  1  0  0  0  0
 19 20  2  0  0  0  0
 20 21  1  0  0  0  0
 20 22  1  0  0  0  0
 22 23  1  0  0  0  0
 22 24  1  0  0  0  0
 23 24  1  0  0  0  0
 26 27  2  0  0  0  0
 26 31  1  0  0  0  0
 27 28  1  0  0  0  0
 28 29  2  0  0  0  0
 29 30  1  0  0  0  0
 30 31  2  0  0  0  0
 30 35  1  0  0  0  0
 31 32  1  0  0  0  0
 32 33  2  0  0  0  0
 33 34  1  0  0  0  0
 33 40  1  0  0  0  0
 34 35  2  0  0  0  0
 34 36  1  0  0  0  0
 36 37  2  0  0  0  0
 37 38  1  0  0  0  0
 38 39  2  0  0  0  0
 38 40  1  0  0  0  0
 40 41  2  0  0  0  0
 42 37  1  1  0  0  0
 42 43  1  0  0  0  0
 42 44  1  0  0  0  0
 42 45  1  0  0  0  0
 44 45  1  0  0  0  0
 45 46  2  0  0  0  0
 47 48  2  0  0  0  0
 47 49  1  0  0  0  0
 49 50  2  0  0  0  0
 49 51  1  0  0  0  0
 51 52  2  0  0  0  0
M  END
$$$$