
 OpenBabel09202008493D

 45 51  0  0  1  0  0  0  0  0999 V2000
    5.5792   -2.2233    0.1628 O   0  0  0  0  0  0  0  0  0  0  0  0
    5.0569   -0.9445   -0.2029 C   0  0  0  0  0  0  0  0  0  0  0  0
    3.5515   -1.0453   -0.5138 C   0  0  2  0  0  0  0  0  0  0  0  0
    3.3086   -1.9275   -1.6276 O   0  0  0  0  0  0  0  0  0  0  0  0
    3.4182   -1.3879   -2.8794 C   0  0  0  0  0  0  0  0  0  0  0  0
    3.4761   -2.3073   -3.9242 C   0  0  0  0  0  0  0  0  0  0  0  0
    3.6484   -1.8867   -5.2504 C   0  0  0  0  0  0  0  0  0  0  0  0
    3.7528   -2.8288   -6.2753 C   0  0  0  0  0  0  0  0  0  0  0  0
    3.9710   -2.3896   -7.5648 C   0  0  0  0  0  0  0  0  0  0  0  0
    4.0847   -1.0911   -7.9050 N   0  0  0  0  0  0  0  0  0  0  0  0
    3.9755   -0.1688   -6.9101 C   0  0  0  0  0  0  0  0  0  0  0  0
    3.7527   -0.5079   -5.5520 C   0  0  0  0  0  0  0  0  0  0  0  0
    3.6478    0.4096   -4.4751 C   0  0  0  0  0  0  0  0  0  0  0  0
    3.4695   -0.0195   -3.1453 C   0  0  0  0  0  0  0  0  0  0  0  0
    3.4133    0.9658   -2.0119 C   0  0  2  0  0  0  0  0  0  0  0  0
    2.8735    0.3083   -0.7336 C   0  0  2  0  0  0  0  0  0  0  0  0
    3.0610    1.1850    0.3825 O   0  0  0  0  0  0  0  0  0  0  0  0
    2.5806    2.0953   -2.3042 O   0  0  0  0  0  0  0  0  0  0  0  0
    4.2005    1.2183   -7.3730 C   0  0  0  0  0  0  0  0  0  0  0  0
    3.2155    2.0010   -7.8560 C   0  0  0  0  0  0  0  0  0  0  0  0
    1.8854    1.5922   -7.8237 O   0  0  0  0  0  0  0  0  0  0  0  0
    1.0209    2.1298   -8.8421 C   0  0  1  0  0  0  0  0  0  0  0  0
    1.5064    1.7506  -10.1427 O   0  0  0  0  0  0  0  0  0  0  0  0
    0.5085    1.8658  -11.1493 C   0  0  1  0  0  0  0  0  0  0  0  0
    1.1547    1.7293  -12.5307 C   0  0  0  0  0  0  0  0  0  0  0  0
    0.1684    1.8679  -13.5520 O   0  0  0  0  0  0  0  0  0  0  0  0
   -0.5701    0.7853  -10.9568 C   0  0  3  0  0  0  0  0  0  0  0  0
   -0.7573    0.4469   -9.4669 C   0  0  3  0  0  0  0  0  0  0  0  0
   -0.4239    1.6393   -8.5675 C   0  0  3  0  0  0  0  0  0  0  0  0
   -1.3635    2.7019   -8.8396 O   0  0  0  0  0  0  0  0  0  0  0  0
   -2.1164    0.0386   -9.2329 O   0  0  0  0  0  0  0  0  0  0  0  0
   -1.8272    1.2169  -11.5125 O   0  0  0  0  0  0  0  0  0  0  0  0
    3.5419    3.3622   -8.4065 C   0  0  0  0  0  0  0  0  0  0  0  0
    4.9722    3.7710   -8.2105 C   0  0  0  0  0  0  0  0  0  0  0  0
    5.8892    2.8791   -7.6779 C   0  0  0  0  0  0  0  0  0  0  0  0
    5.5400    1.5933   -7.3242 O   0  0  0  0  0  0  0  0  0  0  0  0
    7.1828    3.1964   -7.4457 N   0  0  0  0  0  0  0  0  0  0  0  0
    7.5396    4.4490   -7.7578 C   0  0  0  0  0  0  0  0  0  0  0  0
    8.8382    4.7261   -7.4653 O   0  0  0  0  0  0  0  0  0  0  0  0
    6.7017    5.4133   -8.3086 C   0  0  0  0  0  0  0  0  0  0  0  0
    5.3793    5.0592   -8.5534 C   0  0  0  0  0  0  0  0  0  0  0  0
    4.5091    5.9339   -9.0912 N   0  0  0  0  0  0  0  0  0  0  0  0
    4.9576    7.1682   -9.3737 C   0  0  0  0  0  0  0  0  0  0  0  0
    6.2030    7.6126   -9.1703 N   0  0  0  0  0  0  0  0  0  0  0  0
    7.0528    6.7209   -8.6317 C   0  0  0  0  0  0  0  0  0  0  0  0
  1  2  1  0  0  0  0
  3  4  1  0  0  0  0
  3 16  1  0  0  0  0
  3  2  1  6  0  0  0
  4  5  1  0  0  0  0
  5  6  2  0  0  0  0
  5 14  1  0  0  0  0
  6  7  1  0  0  0  0
  7  8  2  0  0  0  0
  7 12  1  0  0  0  0
  8  9  1  0  0  0  0
  9 10  2  0  0  0  0
 10 11  1  0  0  0  0
 11 12  2  0  0  0  0
 11 19  1  0  0  0  0
 12 13  1  0  0  0  0
 13 14  2  0  0  0  0
 14 15  1  0  0  0  0
 15 16  1  0  0  0  0
 15 18  1  6  0  0  0
 16 17  1  1  0  0  0
 19 20  2  0  0  0  0
 19 36  1  0  0  0  0
 20 21  1  0  0  0  0
 20 33  1  0  0  0  0
 22 21  1  1  0  0  0
 22 23  1  0  0  0  0
 22 29  1  0  0  0  0
 23 24  1  0  0  0  0
 24 27  1  0  0  0  0
 24 25  1  6  0  0  0
 25 26  1  0  0  0  0
 27 28  1  0  0  0  0
 27 32  1  0  0  0  0
 28 29  1  0  0  0  0
 28 31  1  0  0  0  0
 29 30  1  0  0  0  0
 33 34  1  0  0  0  0
 34 35  2  0  0  0  0
 34 41  1  0  0  0  0
 35 36  1  0  0  0  0
 35 37  1  0  0  0  0
 37 38  2  0  0  0  0
 38 39  1  0  0  0  0
 38 40  1  0  0  0  0
 40 41  2  0  0  0  0
 40 45  1  0  0  0  0
 41 42  1  0  0  0  0
 42 43  2  0  0  0  0
 43 44  1  0  0  0  0
 44 45  2  0  0  0  0
M  END
$$$$