
 OpenBabel09232005523D

 52 60  0  0  1  0  0  0  0  0999 V2000
    0.6061   -7.2144    4.2314 O   0  0  0  0  0  0  0  0  0  0  0  0
   -0.0139   -5.9912    4.3120 C   0  0  0  0  0  0  0  0  0  0  0  0
    0.4585   -4.8955    3.7028 C   0  0  0  0  0  0  0  0  0  0  0  0
    1.6467   -4.9331    2.9972 O   0  0  0  0  0  0  0  0  0  0  0  0
    1.6542   -4.1302    1.8094 C   0  0  2  0  0  0  0  0  0  0  0  0
    2.7956   -4.3823    0.9843 O   0  0  0  0  0  0  0  0  0  0  0  0
    2.9171   -5.6586    0.4372 C   0  0  0  0  0  0  0  0  0  0  0  0
    3.5425   -5.8669   -0.7390 C   0  0  0  0  0  0  0  0  0  0  0  0
    3.7562   -7.1222   -1.2982 O   0  0  0  0  0  0  0  0  0  0  0  0
    3.2525   -8.2381   -0.6625 C   0  0  0  0  0  0  0  0  0  0  0  0
    2.5317   -8.1462    0.5103 C   0  0  0  0  0  0  0  0  0  0  0  0
    2.3915   -6.8351    1.2051 C   0  0  0  0  0  0  0  0  0  0  0  0
    1.9693   -9.3169    1.0196 C   0  0  0  0  0  0  0  0  0  0  0  0
    1.1630   -9.2789    2.1639 N   0  0  0  0  0  0  0  0  0  0  0  0
    0.5723  -10.3569    2.7360 C   0  0  0  0  0  0  0  0  0  0  0  0
   -0.1221  -10.2371    3.7419 O   0  0  0  0  0  0  0  0  0  0  0  0
    0.7915  -11.5590    2.1564 N   0  0  0  0  0  0  0  0  0  0  0  0
    1.5487  -11.7762    0.9461 C   0  0  0  0  0  0  0  0  0  0  0  0
    2.1900  -10.5397    0.3936 C   0  0  0  0  0  0  0  0  0  0  0  0
    2.9933  -10.5655   -0.7558 C   0  0  0  0  0  0  0  0  0  0  0  0
    3.4839   -9.4080   -1.2941 N   0  0  0  0  0  0  0  0  0  0  0  0
    3.3130  -11.8587   -1.4759 C   0  0  0  0  0  0  0  0  0  0  0  0
    2.4159  -12.2716   -2.5185 O   0  0  0  0  0  0  0  0  0  0  0  0
    4.6944  -12.1630   -1.7106 O   0  0  0  0  0  0  0  0  0  0  0  0
    3.9408  -12.9185   -0.7432 O   0  0  0  0  0  0  0  0  0  0  0  0
    4.0342   -4.7614   -1.5807 C   0  0  0  0  0  0  0  0  0  0  0  0
    5.3062   -4.3849   -1.3382 N   0  0  0  0  0  0  0  0  0  0  0  0
    5.7718   -3.3904   -2.0979 C   0  0  0  0  0  0  0  0  0  0  0  0
    5.1025   -2.7603   -3.0740 N   0  0  0  0  0  0  0  0  0  0  0  0
    3.8477   -3.1534   -3.3062 C   0  0  0  0  0  0  0  0  0  0  0  0
    3.2263   -4.1723   -2.5705 C   0  0  0  0  0  0  0  0  0  0  0  0
    1.8833   -4.5223   -2.8648 C   0  0  0  0  0  0  0  0  0  0  0  0
    1.1910   -3.8662   -3.8852 C   0  0  0  0  0  0  0  0  0  0  0  0
    1.8223   -2.8887   -4.6422 C   0  0  0  0  0  0  0  0  0  0  0  0
    3.1350   -2.5306   -4.3272 C   0  0  0  0  0  0  0  0  0  0  0  0
    1.2537   -2.2275   -5.6971 O   0  0  0  0  0  0  0  0  0  0  0  0
    0.0465   -2.7859   -6.2352 C   0  0  2  0  0  0  0  0  0  0  0  0
   -0.8966   -3.3234   -5.1874 C   0  0  0  0  0  0  0  0  0  0  0  0
   -2.0977   -3.1015   -5.1450 O   0  0  0  0  0  0  0  0  0  0  0  0
   -0.2185   -4.1823   -4.1471 C   0  0  0  0  0  0  0  0  0  0  0  0
   -0.8197   -5.0529   -3.5399 O   0  0  0  0  0  0  0  0  0  0  0  0
    0.3535   -3.8273   -7.2645 C   0  0  1  0  0  0  0  0  0  0  0  0
    1.0751   -4.9980   -6.8095 O   0  0  0  0  0  0  0  0  0  0  0  0
   -0.7136   -4.0791   -8.1805 O   0  0  0  0  0  0  0  0  0  0  0  0
    0.4185   -3.5665   -8.7021 C   0  0  0  0  0  0  0  0  0  0  0  0
    1.1567   -4.0275   -9.5427 O   0  0  0  0  0  0  0  0  0  0  0  0
    1.6010   -2.6943    2.2982 C   0  0  0  0  0  0  0  0  0  0  0  0
    2.4199   -1.8117    2.0999 O   0  0  0  0  0  0  0  0  0  0  0  0
    0.3553   -2.4451    3.1149 C   0  0  0  0  0  0  0  0  0  0  0  0
   -0.1512   -1.3351    3.1404 O   0  0  0  0  0  0  0  0  0  0  0  0
   -0.3016   -3.6189    3.8244 C   0  0  0  0  0  0  0  0  0  0  0  0
   -1.3750   -3.5156    4.3928 O   0  0  0  0  0  0  0  0  0  0  0  0
  1  2  1  0  0  0  0
  2  3  2  0  0  0  0
  3  4  1  0  0  0  0
  3 51  1  0  0  0  0
  4  5  1  0  0  0  0
  5  6  1  1  0  0  0
  5 47  1  0  0  0  0
  6  7  1  0  0  0  0
  7  8  2  0  0  0  0
  7 12  1  0  0  0  0
  8  9  1  0  0  0  0
  8 26  1  0  0  0  0
  9 10  1  0  0  0  0
 10 11  2  0  0  0  0
 10 21  1  0  0  0  0
 11 12  1  0  0  0  0
 11 13  1  0  0  0  0
 13 14  1  0  0  0  0
 13 19  2  0  0  0  0
 14 15  1  0  0  0  0
 15 16  2  0  0  0  0
 15 17  1  0  0  0  0
 17 18  1  0  0  0  0
 18 19  1  0  0  0  0
 19 20  1  0  0  0  0
 20 21  2  0  0  0  0
 20 22  1  0  0  0  0
 22 23  1  0  0  0  0
 22 24  1  0  0  0  0
 22 25  1  0  0  0  0
 24 25  1  0  0  0  0
 26 27  2  0  0  0  0
 26 31  1  0  0  0  0
 27 28  1  0  0  0  0
 28 29  2  0  0  0  0
 29 30  1  0  0  0  0
 30 31  2  0  0  0  0
 30 35  1  0  0  0  0
 31 32  1  0  0  0  0
 32 33  2  0  0  0  0
 33 34  1  0  0  0  0
 33 40  1  0  0  0  0
 34 35  2  0  0  0  0
 34 36  1  0  0  0  0
 37 36  1  1  0  0  0
 37 38  1  0  0  0  0
 37 42  1  0  0  0  0
 38 39  2  0  0  0  0
 38 40  1  0  0  0  0
 40 41  2  0  0  0  0
 42 43  1  1  0  0  0
 42 44  1  0  0  0  0
 42 45  1  0  0  0  0
 44 45  1  0  0  0  0
 45 46  2  0  0  0  0
 47 48  2  0  0  0  0
 47 49  1  0  0  0  0
 49 50  2  0  0  0  0
 49 51  1  0  0  0  0
 51 52  2  0  0  0  0
M  END
$$$$