
 OpenBabel11182016563D

 52 60  0  0  1  0  0  0  0  0999 V2000
    1.5154   -6.2679  -10.0425 O   0  0  0  0  0  0  0  0  0  0  0  0
    0.1940   -5.9448   -9.8712 C   0  0  0  0  0  0  0  0  0  0  0  0
   -0.2043   -4.7831   -9.3392 C   0  0  0  0  0  0  0  0  0  0  0  0
    0.7165   -3.8524   -8.9020 O   0  0  0  0  0  0  0  0  0  0  0  0
    0.2831   -2.5021   -8.9719 C   0  0  2  0  0  0  0  0  0  0  0  0
    1.2958   -1.6491   -8.4295 O   0  0  0  0  0  0  0  0  0  0  0  0
    2.2508   -1.1343   -9.2898 C   0  0  0  0  0  0  0  0  0  0  0  0
    2.8124    0.0616   -9.0233 C   0  0  0  0  0  0  0  0  0  0  0  0
    3.7602    0.6586   -9.8384 O   0  0  0  0  0  0  0  0  0  0  0  0
    4.1019    0.0495  -11.0289 C   0  0  0  0  0  0  0  0  0  0  0  0
    3.6444   -1.1662  -11.3773 C   0  0  0  0  0  0  0  0  0  0  0  0
    2.7135   -1.9400  -10.4854 C   0  0  0  0  0  0  0  0  0  0  0  0
    4.0403   -1.7709  -12.7086 C   0  0  3  0  0  0  0  0  0  0  0  0
    2.8308   -2.0828  -13.4014 O   0  0  0  0  0  0  0  0  0  0  0  0
    2.8100   -2.3282  -14.7333 C   0  0  0  0  0  0  0  0  0  0  0  0
    1.8051   -2.7680  -15.2770 O   0  0  0  0  0  0  0  0  0  0  0  0
    3.9277   -2.0497  -15.4436 O   0  0  0  0  0  0  0  0  0  0  0  0
    5.0990   -1.4722  -14.8878 C   0  0  3  0  0  0  0  0  0  0  0  0
    4.8528   -0.8626  -13.5677 C   0  0  0  0  0  0  0  0  0  0  0  0
    5.2599    0.3549  -13.1455 C   0  0  0  0  0  0  0  0  0  0  0  0
    4.9207    0.7592  -11.8670 N   0  0  0  0  0  0  0  0  0  0  0  0
    6.0549    1.3131  -13.9440 C   0  0  0  0  0  0  0  0  0  0  0  0
    5.5626    1.8774  -15.1701 O   0  0  0  0  0  0  0  0  0  0  0  0
    5.7139    2.7093  -14.0046 O   0  0  0  0  0  0  0  0  0  0  0  0
    6.0785   -2.4841  -14.7258 O   0  0  0  0  0  0  0  0  0  0  0  0
    2.4911    0.8600   -7.8298 C   0  0  0  0  0  0  0  0  0  0  0  0
    3.4194    0.7671   -6.8508 N   0  0  0  0  0  0  0  0  0  0  0  0
    3.2733    1.4675   -5.7640 N   0  0  0  0  0  0  0  0  0  0  0  0
    2.2739    2.2928   -5.6021 N   0  0  0  0  0  0  0  0  0  0  0  0
    1.3367    2.4157   -6.5685 C   0  0  0  0  0  0  0  0  0  0  0  0
    0.1507    3.5666   -6.1896 P   0  0  0  0  0  0  0  0  0  0  0  0
   -0.8557    3.5706   -7.5449 C   0  0  0  0  0  0  0  0  0  0  0  0
   -0.6964    2.6953   -8.6193 C   0  0  0  0  0  0  0  0  0  0  0  0
    0.3801    1.8063   -8.7459 C   0  0  0  0  0  0  0  0  0  0  0  0
    1.3758    1.6892   -7.7470 C   0  0  0  0  0  0  0  0  0  0  0  0
   -1.7134    2.6918   -9.6882 C   0  0  0  0  0  0  0  0  0  0  0  0
   -1.6620    1.9133  -10.6286 O   0  0  0  0  0  0  0  0  0  0  0  0
   -2.8414    3.6861   -9.5630 C   0  0  0  0  0  0  0  0  0  0  0  0
   -3.8958    3.5318  -10.1613 O   0  0  0  0  0  0  0  0  0  0  0  0
   -2.5173    4.8655   -8.6882 C   0  0  1  0  0  0  0  0  0  0  0  0
   -1.8583    4.5059   -7.4726 O   0  0  0  0  0  0  0  0  0  0  0  0
   -1.7425    5.9042   -9.4369 C   0  0  1  0  0  0  0  0  0  0  0  0
   -0.4766    5.4843  -10.0047 O   0  0  0  0  0  0  0  0  0  0  0  0
   -2.5447    6.7520  -10.2596 O   0  0  0  0  0  0  0  0  0  0  0  0
   -1.8983    7.3413   -9.2375 C   0  0  0  0  0  0  0  0  0  0  0  0
   -1.0646    8.2263   -9.2639 O   0  0  0  0  0  0  0  0  0  0  0  0
   -0.9836   -2.2502   -8.1673 C   0  0  0  0  0  0  0  0  0  0  0  0
   -1.2315   -1.2434   -7.5161 O   0  0  0  0  0  0  0  0  0  0  0  0
   -2.0047   -3.3491   -8.3266 C   0  0  0  0  0  0  0  0  0  0  0  0
   -3.0934   -3.2663   -7.7794 O   0  0  0  0  0  0  0  0  0  0  0  0
   -1.6652   -4.5585   -9.1703 C   0  0  0  0  0  0  0  0  0  0  0  0
   -2.5302   -5.2587   -9.6691 O   0  0  0  0  0  0  0  0  0  0  0  0
  1  2  1  0  0  0  0
  2  3  2  0  0  0  0
  3  4  1  0  0  0  0
  3 51  1  0  0  0  0
  4  5  1  0  0  0  0
  5  6  1  1  0  0  0
  5 47  1  0  0  0  0
  6  7  1  0  0  0  0
  7  8  2  0  0  0  0
  7 12  1  0  0  0  0
  8  9  1  0  0  0  0
  8 26  1  0  0  0  0
  9 10  1  0  0  0  0
 10 11  2  0  0  0  0
 10 21  1  0  0  0  0
 11 12  1  0  0  0  0
 11 13  1  0  0  0  0
 13 14  1  0  0  0  0
 13 19  1  0  0  0  0
 14 15  1  0  0  0  0
 15 16  2  0  0  0  0
 15 17  1  0  0  0  0
 17 18  1  0  0  0  0
 18 19  1  0  0  0  0
 18 25  1  0  0  0  0
 19 20  2  0  0  0  0
 20 21  1  0  0  0  0
 20 22  1  0  0  0  0
 22 23  1  0  0  0  0
 22 24  1  0  0  0  0
 23 24  1  0  0  0  0
 26 27  2  0  0  0  0
 26 35  1  0  0  0  0
 27 28  1  0  0  0  0
 28 29  2  0  0  0  0
 29 30  1  0  0  0  0
 30 31  2  0  0  0  0
 30 35  1  0  0  0  0
 31 32  1  0  0  0  0
 32 33  2  0  0  0  0
 32 41  1  0  0  0  0
 33 34  1  0  0  0  0
 33 36  1  0  0  0  0
 34 35  2  0  0  0  0
 36 37  2  0  0  0  0
 36 38  1  0  0  0  0
 38 39  2  0  0  0  0
 40 38  1  6  0  0  0
 40 41  1  0  0  0  0
 40 42  1  0  0  0  0
 42 43  1  6  0  0  0
 42 44  1  0  0  0  0
 42 45  1  0  0  0  0
 44 45  1  0  0  0  0
 45 46  2  0  0  0  0
 47 48  2  0  0  0  0
 47 49  1  0  0  0  0
 49 50  2  0  0  0  0
 49 51  1  0  0  0  0
 51 52  2  0  0  0  0
M  END
$$$$