
 OpenBabel11272020143D

 54 62  0  0  1  0  0  0  0  0999 V2000
    0.4119   -1.1880   -1.7875 O   0  0  0  0  0  0  0  0  0  0  0  0
   -0.2045   -0.9532   -2.9887 C   0  0  0  0  0  0  0  0  0  0  0  0
   -0.1357    0.2247   -3.6230 C   0  0  0  0  0  0  0  0  0  0  0  0
    0.5198    1.3031   -3.0560 O   0  0  0  0  0  0  0  0  0  0  0  0
    1.1262    2.2698   -3.9232 C   0  0  2  0  0  0  0  0  0  0  0  0
    1.5923    3.3400   -3.0911 O   0  0  0  0  0  0  0  0  0  0  0  0
    2.1775    4.5180   -3.4745 C   0  0  0  0  0  0  0  0  0  0  0  0
    3.0058    4.7995   -4.5149 C   0  0  0  0  0  0  0  0  0  0  0  0
    3.4724    6.0979   -4.7249 O   0  0  0  0  0  0  0  0  0  0  0  0
    2.9695    7.1686   -4.0219 C   0  0  0  0  0  0  0  0  0  0  0  0
    2.1996    7.0059   -2.9382 C   0  0  0  0  0  0  0  0  0  0  0  0
    1.7608    5.6247   -2.5146 C   0  0  0  0  0  0  0  0  0  0  0  0
    1.7237    8.1757   -2.1327 C   0  0  3  0  0  0  0  0  0  0  0  0
    2.2588    8.0824   -0.8301 O   0  0  0  0  0  0  0  0  0  0  0  0
    1.8607    9.0470    0.0461 C   0  0  0  0  0  0  0  0  0  0  0  0
    1.8768    8.8750    1.2502 O   0  0  0  0  0  0  0  0  0  0  0  0
    1.5553   10.2551   -0.5090 O   0  0  0  0  0  0  0  0  0  0  0  0
    1.9068   10.5387   -1.7613 C   0  0  0  0  0  0  0  0  0  0  0  0
    2.0202   11.6769   -2.2168 O   0  0  0  0  0  0  0  0  0  0  0  0
    2.2639    9.4592   -2.6775 C   0  0  0  0  0  0  0  0  0  0  0  0
    3.0072    9.6044   -3.8186 C   0  0  0  0  0  0  0  0  0  0  0  0
    3.3255    8.4066   -4.5106 O   0  3  0  0  0  0  0  0  0  0  0  0
    3.5783   10.8951   -4.4281 C   0  0  0  0  0  0  0  0  0  0  0  0
    3.8738   12.1534   -3.6292 N   0  3  0  0  0  0  0  0  0  0  0  0
    2.9611   12.2670   -4.2601 N   0  3  0  0  0  0  0  0  0  0  0  0
    3.5757    3.8621   -5.5250 C   0  0  0  0  0  0  0  0  0  0  0  0
    4.1364    2.7515   -5.0148 N   0  0  0  0  0  0  0  0  0  0  0  0
    4.5938    1.8274   -5.8884 C   0  0  0  0  0  0  0  0  0  0  0  0
    5.1560    0.7280   -5.3732 F   0  0  0  0  0  0  0  0  0  0  0  0
    4.4533    1.9225   -7.2606 C   0  0  0  0  0  0  0  0  0  0  0  0
    3.8944    3.0854   -7.8065 C   0  0  0  0  0  0  0  0  0  0  0  0
    3.5299    4.1241   -6.9252 C   0  0  0  0  0  0  0  0  0  0  0  0
    3.1428    5.3458   -7.5121 C   0  0  0  0  0  0  0  0  0  0  0  0
    3.0175    5.5016   -8.8923 C   0  0  0  0  0  0  0  0  0  0  0  0
    2.7878    6.8444   -9.4300 C   0  0  0  0  0  0  0  0  0  0  0  0
    2.8940    7.8297   -8.7022 O   0  0  0  0  0  0  0  0  0  0  0  0
    2.5179    6.9151  -10.9167 C   0  0  0  0  0  0  0  0  0  0  0  0
    2.7001    7.9649  -11.5136 O   0  0  0  0  0  0  0  0  0  0  0  0
    1.9971    5.6115  -11.4932 C   0  0  1  0  0  0  0  0  0  0  0  0
    2.7673    4.4647  -11.0569 O   0  0  0  0  0  0  0  0  0  0  0  0
    3.1350    4.4215   -9.7405 C   0  0  0  0  0  0  0  0  0  0  0  0
    3.6491    3.2381   -9.1983 C   0  0  0  0  0  0  0  0  0  0  0  0
    3.9001    2.2034  -10.0146 F   0  0  0  0  0  0  0  0  0  0  0  0
    0.5200    5.4793  -11.1848 C   0  0  1  0  0  0  0  0  0  0  0  0
    0.1408    5.4694   -9.7883 O   0  0  0  0  0  0  0  0  0  0  0  0
   -0.2888    6.3370  -12.0027 O   0  0  0  0  0  0  0  0  0  0  0  0
   -0.5122    4.9363  -12.1584 C   0  0  3  0  0  0  0  0  0  0  0  0
   -1.7356    4.4727  -11.5584 O   0  0  0  0  0  0  0  0  0  0  0  0
    0.1126    2.7434   -4.9550 C   0  0  0  0  0  0  0  0  0  0  0  0
   -0.1298    3.9100   -5.2471 O   0  0  0  0  0  0  0  0  0  0  0  0
   -0.5632    1.6088   -5.6692 C   0  0  0  0  0  0  0  0  0  0  0  0
   -0.7930    1.7205   -6.8634 O   0  0  0  0  0  0  0  0  0  0  0  0
   -0.8628    0.3370   -4.9156 C   0  0  0  0  0  0  0  0  0  0  0  0
   -1.6373   -0.4942   -5.3557 O   0  0  0  0  0  0  0  0  0  0  0  0
  1  2  1  0  0  0  0
  2  3  2  0  0  0  0
  3  4  1  0  0  0  0
  3 53  1  0  0  0  0
  4  5  1  0  0  0  0
  5  6  1  1  0  0  0
  5 49  1  0  0  0  0
  6  7  1  0  0  0  0
  7  8  2  0  0  0  0
  7 12  1  0  0  0  0
  8  9  1  0  0  0  0
  8 26  1  0  0  0  0
  9 10  1  0  0  0  0
 10 11  2  0  0  0  0
 10 22  1  0  0  0  0
 11 12  1  0  0  0  0
 11 13  1  0  0  0  0
 13 14  1  0  0  0  0
 13 20  1  0  0  0  0
 14 15  1  0  0  0  0
 15 16  2  0  0  0  0
 15 17  1  0  0  0  0
 17 18  1  0  0  0  0
 18 19  2  0  0  0  0
 18 20  1  0  0  0  0
 20 21  2  0  0  0  0
 21 22  1  0  0  0  0
 21 23  1  0  0  0  0
 23 24  1  0  0  0  0
 23 25  1  0  0  0  0
 24 25  3  0  0  0  0
 26 27  2  0  0  0  0
 26 32  1  0  0  0  0
 27 28  1  0  0  0  0
 28 29  1  0  0  0  0
 28 30  2  0  0  0  0
 30 31  1  0  0  0  0
 31 32  2  0  0  0  0
 31 42  1  0  0  0  0
 32 33  1  0  0  0  0
 33 34  2  0  0  0  0
 34 35  1  0  0  0  0
 34 41  1  0  0  0  0
 35 36  2  0  0  0  0
 35 37  1  0  0  0  0
 37 38  2  0  0  0  0
 39 37  1  1  0  0  0
 39 40  1  0  0  0  0
 39 44  1  0  0  0  0
 40 41  1  0  0  0  0
 41 42  2  0  0  0  0
 42 43  1  0  0  0  0
 44 45  1  1  0  0  0
 44 46  1  0  0  0  0
 44 47  1  0  0  0  0
 46 47  1  0  0  0  0
 47 48  1  0  0  0  0
 49 50  2  0  0  0  0
 49 51  1  0  0  0  0
 51 52  2  0  0  0  0
 51 53  1  0  0  0  0
 53 54  2  0  0  0  0
M  CHG  3  22   1  24   1  25   1
M  END
$$$$