
 OpenBabel09222001203D

 51 59  0  0  1  0  0  0  0  0999 V2000
    1.8946    0.3845    0.8852 O   0  0  0  0  0  0  0  0  0  0  0  0
    2.7828    0.1553    0.0706 C   0  0  0  0  0  0  0  0  0  0  0  0
    3.1399   -1.1144   -0.2372 N   0  0  0  0  0  0  0  0  0  0  0  0
    4.0317   -1.4794   -1.3089 C   0  0  0  0  0  0  0  0  0  0  0  0
    4.8080   -0.3257   -1.8384 C   0  0  0  0  0  0  0  0  0  0  0  0
    4.5170    0.9800   -1.4492 C   0  0  0  0  0  0  0  0  0  0  0  0
    3.4678    1.1652   -0.5371 N   0  0  0  0  0  0  0  0  0  0  0  0
    5.2601    2.0577   -1.9602 C   0  0  0  0  0  0  0  0  0  0  0  0
    5.0083    3.4940   -1.5894 C   0  0  0  0  0  0  0  0  0  0  0  0
    5.9563    4.4628   -2.2524 C   0  0  0  0  0  0  0  0  0  0  0  0
    6.9428    4.0218   -3.0620 C   0  0  0  0  0  0  0  0  0  0  0  0
    7.1149    2.6926   -3.3978 O   0  0  0  0  0  0  0  0  0  0  0  0
    6.2822    1.7438   -2.8550 C   0  0  0  0  0  0  0  0  0  0  0  0
    6.5632    0.4905   -3.2746 N   0  0  0  0  0  0  0  0  0  0  0  0
    5.8173   -0.4915   -2.7597 C   0  0  0  0  0  0  0  0  0  0  0  0
    6.1365   -1.7176   -3.2425 O   0  0  0  0  0  0  0  0  0  0  0  0
    7.8106    4.9260   -3.8453 C   0  0  0  0  0  0  0  0  0  0  0  0
    7.2887    5.1534   -5.0834 N   0  0  0  0  0  0  0  0  0  0  0  0
    7.9135    6.0506   -5.8663 C   0  0  0  0  0  0  0  0  0  0  0  0
    8.9915    6.8094   -5.4499 C   0  0  0  0  0  0  0  0  0  0  0  0
    9.5304    6.5914   -4.1734 C   0  0  0  0  0  0  0  0  0  0  0  0
    8.9789    5.5716   -3.3572 C   0  0  0  0  0  0  0  0  0  0  0  0
    9.6249    5.2997   -2.1241 C   0  0  0  0  0  0  0  0  0  0  0  0
   10.6773    6.1119   -1.6620 C   0  0  0  0  0  0  0  0  0  0  0  0
   11.1135    7.1974   -2.4035 C   0  0  0  0  0  0  0  0  0  0  0  0
   10.5810    7.3942   -3.6751 C   0  0  0  0  0  0  0  0  0  0  0  0
   12.0485    8.1049   -2.0026 O   0  0  0  0  0  0  0  0  0  0  0  0
   12.4175    8.1200   -0.6186 C   0  0  2  0  0  0  0  0  0  0  0  0
   12.4013    6.7857    0.0816 C   0  0  0  0  0  0  0  0  0  0  0  0
   13.1318    6.5094    1.0228 O   0  0  0  0  0  0  0  0  0  0  0  0
   11.3277    5.8272   -0.3801 C   0  0  0  0  0  0  0  0  0  0  0  0
   11.0169    4.8664    0.3052 O   0  0  0  0  0  0  0  0  0  0  0  0
   11.6863    9.2030    0.1309 C   0  0  1  0  0  0  0  0  0  0  0  0
   11.9666   10.5578   -0.3054 O   0  0  0  0  0  0  0  0  0  0  0  0
   10.3284    8.8976    0.4286 O   0  0  0  0  0  0  0  0  0  0  0  0
   11.1278    9.1137    1.4907 C   0  0  0  0  0  0  0  0  0  0  0  0
   11.0322    9.9588    2.3457 O   0  0  0  0  0  0  0  0  0  0  0  0
    9.5262    7.7718   -6.2621 O   0  0  0  0  0  0  0  0  0  0  0  0
    5.8264    5.7891   -1.8810 O   0  0  0  0  0  0  0  0  0  0  0  0
    4.8892    6.5536   -2.6536 C   0  0  1  0  0  0  0  0  0  0  0  0
    3.5818    6.5010   -2.0653 O   0  0  0  0  0  0  0  0  0  0  0  0
    2.5758    7.2522   -2.7727 C   0  0  1  0  0  0  0  0  0  0  0  0
    1.3326    7.2891   -1.9369 C   0  0  0  0  0  0  0  0  0  0  0  0
    0.7430    6.0132   -1.6801 O   0  0  0  0  0  0  0  0  0  0  0  0
    0.1243    6.9344   -2.6080 O   0  0  0  0  0  0  0  0  0  0  0  0
    3.0255    8.6686   -3.0760 C   0  0  0  0  0  0  0  0  0  0  0  0
    2.4736    9.4630   -3.8178 O   0  0  0  0  0  0  0  0  0  0  0  0
    4.3335    8.9904   -2.4217 C   0  0  0  0  0  0  0  0  0  0  0  0
    4.4512    9.9619   -1.6954 O   0  0  0  0  0  0  0  0  0  0  0  0
    5.4294    7.9841   -2.6227 C   0  0  0  0  0  0  0  0  0  0  0  0
    6.5802    8.3444   -2.8174 O   0  0  0  0  0  0  0  0  0  0  0  0
  1  2  2  0  0  0  0
  2  3  1  0  0  0  0
  2  7  1  0  0  0  0
  3  4  1  0  0  0  0
  4  5  1  0  0  0  0
  5  6  2  0  0  0  0
  5 15  1  0  0  0  0
  6  7  1  0  0  0  0
  6  8  1  0  0  0  0
  8  9  1  0  0  0  0
  8 13  2  0  0  0  0
  9 10  1  0  0  0  0
 10 11  2  0  0  0  0
 10 39  1  0  0  0  0
 11 12  1  0  0  0  0
 11 17  1  0  0  0  0
 12 13  1  0  0  0  0
 13 14  1  0  0  0  0
 14 15  2  0  0  0  0
 15 16  1  0  0  0  0
 17 18  2  0  0  0  0
 17 22  1  0  0  0  0
 18 19  1  0  0  0  0
 19 20  2  0  0  0  0
 20 21  1  0  0  0  0
 20 38  1  0  0  0  0
 21 22  2  0  0  0  0
 21 26  1  0  0  0  0
 22 23  1  0  0  0  0
 23 24  2  0  0  0  0
 24 25  1  0  0  0  0
 24 31  1  0  0  0  0
 25 26  2  0  0  0  0
 25 27  1  0  0  0  0
 28 27  1  6  0  0  0
 28 29  1  0  0  0  0
 28 33  1  0  0  0  0
 29 30  2  0  0  0  0
 29 31  1  0  0  0  0
 31 32  2  0  0  0  0
 33 34  1  6  0  0  0
 33 35  1  0  0  0  0
 33 36  1  0  0  0  0
 35 36  1  0  0  0  0
 36 37  2  0  0  0  0
 40 39  1  1  0  0  0
 40 41  1  0  0  0  0
 40 50  1  0  0  0  0
 41 42  1  0  0  0  0
 42 46  1  0  0  0  0
 42 43  1  1  0  0  0
 43 44  1  0  0  0  0
 43 45  1  0  0  0  0
 44 45  1  0  0  0  0
 46 47  2  0  0  0  0
 46 48  1  0  0  0  0
 48 49  2  0  0  0  0
 48 50  1  0  0  0  0
 50 51  2  0  0  0  0
M  END
$$$$