
 OpenBabel05082114353D

 52 62  0  0  1  0  0  0  0  0999 V2000
   -0.6363    3.5856    0.4376 F   0  0  0  0  0  0  0  0  0  0  0  0
    0.4041    3.1147   -0.2633 C   0  0  0  0  0  0  0  0  0  0  0  0
    1.6713    3.6608   -0.0455 C   0  0  0  0  0  0  0  0  0  0  0  0
    2.7937    3.2493   -0.7945 C   0  0  0  0  0  0  0  0  0  0  0  0
    2.5687    2.2082   -1.7215 C   0  0  0  0  0  0  0  0  0  0  0  0
    1.3090    1.6306   -1.8972 C   0  0  0  0  0  0  0  0  0  0  0  0
    0.2218    2.0956   -1.1808 C   0  0  0  0  0  0  0  0  0  0  0  0
   -0.9915    1.5556   -1.3605 F   0  0  0  0  0  0  0  0  0  0  0  0
    1.1566    0.6140   -2.7585 F   0  0  0  0  0  0  0  0  0  0  0  0
    3.5796    1.7309   -2.4653 F   0  0  0  0  0  0  0  0  0  0  0  0
    4.1441    3.8573   -0.5813 C   0  0  0  0  0  0  0  0  0  0  0  0
    5.2882    3.0453   -0.6551 C   0  0  0  0  0  0  0  0  0  0  0  0
    6.5813    3.5508   -0.4623 C   0  0  0  0  0  0  0  0  0  0  0  0
    6.8103    4.8828   -0.0902 C   0  0  0  0  0  0  0  0  0  0  0  0
    5.6655    5.7063    0.0875 C   0  0  0  0  0  0  0  0  0  0  0  0
    4.3792    5.2153   -0.2501 C   0  0  0  0  0  0  0  0  0  0  0  0
    3.3238    6.2545   -0.3989 C   0  0  0  0  0  0  0  0  0  0  0  0
    2.5099    6.1612   -1.3169 O   0  0  0  0  0  0  0  0  0  0  0  0
    3.2940    7.3907    0.6496 C   0  0  1  0  0  0  0  0  0  0  0  0
    4.7030    7.8688    1.0678 C   0  0  2  0  0  0  0  0  0  0  0  0
    5.8406    6.9982    0.5964 C   0  0  0  0  0  0  0  0  0  0  0  0
    7.1189    7.4808    0.8407 C   0  0  0  0  0  0  0  0  0  0  0  0
    8.2399    6.7050    0.6036 C   0  0  0  0  0  0  0  0  0  0  0  0
    8.1374    5.3894    0.1120 C   0  0  0  0  0  0  0  0  0  0  0  0
    9.4481    4.5164   -0.2418 C   0  0  0  0  0  0  0  0  0  0  0  0
    9.9967    3.5885    1.1831 C   0  0  0  0  0  0  0  0  0  0  0  0
   10.8320    4.4547    0.8533 C   0  0  0  0  0  0  0  0  0  0  0  0
   11.0041    5.3673    0.0099 C   0  0  0  0  0  0  0  0  0  0  0  0
    7.2939    8.7225    1.3814 O   0  0  0  0  0  0  0  0  0  0  0  0
    6.4786    9.7095    0.7429 C   0  0  2  0  0  0  0  0  0  0  0  0
    4.9855    9.3257    0.6735 C   0  0  1  0  0  0  0  0  0  0  0  0
    4.2998    9.6149   -0.6315 C   0  0  0  0  0  0  0  0  0  0  0  0
    2.9632    9.2279   -0.7240 C   0  0  0  0  0  0  0  0  0  0  0  0
    2.4146    8.4538    0.2621 O   0  0  0  0  0  0  0  0  0  0  0  0
    2.1731    9.6181   -1.7921 C   0  0  0  0  0  0  0  0  0  0  0  0
    2.7495   10.3509   -2.8283 C   0  0  0  0  0  0  0  0  0  0  0  0
    4.1178   10.6730   -2.8065 C   0  0  0  0  0  0  0  0  0  0  0  0
    4.9059   10.2918   -1.6929 C   0  0  0  0  0  0  0  0  0  0  0  0
    6.2754   10.5697   -1.7038 C   0  0  0  0  0  0  0  0  0  0  0  0
    7.1395   10.1402   -0.5830 C   0  0  0  0  0  0  0  0  0  0  0  0
    8.3647   10.2164   -0.7029 O   0  0  0  0  0  0  0  0  0  0  0  0
    6.8654   11.2163   -2.7973 C   0  0  0  0  0  0  0  0  0  0  0  0
    6.0922   11.6451   -3.8838 C   0  0  0  0  0  0  0  0  0  0  0  0
    4.7185   11.3588   -3.8771 C   0  0  0  0  0  0  0  0  0  0  0  0
    6.7207   12.3497   -5.0769 C   0  0  3  0  0  0  0  0  0  0  0  0
    7.1579   11.2942   -6.1625 C   0  0  0  0  0  0  0  0  0  0  0  0
    8.1573   11.8190   -7.2407 C   0  0  0  0  0  0  0  0  0  0  0  0
    9.2306   12.6838   -6.6195 C   0  0  0  0  0  0  0  0  0  0  0  0
    8.8868   13.2472   -5.5069 C   0  0  0  0  0  0  0  0  0  0  0  0
    7.8809   13.2641   -4.6929 C   0  0  0  0  0  0  0  0  0  0  0  0
    6.5782   10.8910    1.5612 O   0  0  0  0  0  0  0  0  0  0  0  0
    2.6788    6.7811    1.7972 O   0  0  0  0  0  0  0  0  0  0  0  0
  1  2  1  0  0  0  0
  2  3  2  0  0  0  0
  2  7  1  0  0  0  0
  3  4  1  0  0  0  0
  4  5  2  0  0  0  0
  4 11  1  0  0  0  0
  5  6  1  0  0  0  0
  5 10  1  0  0  0  0
  6  7  2  0  0  0  0
  6  9  1  0  0  0  0
  7  8  1  0  0  0  0
 11 12  2  0  0  0  0
 11 16  1  0  0  0  0
 12 13  1  0  0  0  0
 13 14  2  0  0  0  0
 14 15  1  0  0  0  0
 14 24  1  0  0  0  0
 15 16  2  0  0  0  0
 15 21  1  0  0  0  0
 16 17  1  0  0  0  0
 17 19  1  0  0  0  0
 17 18  2  0  0  0  0
 19 20  1  0  0  0  0
 19 34  1  0  0  0  0
 19 52  1  1  0  0  0
 20 21  1  1  0  0  0
 20 31  1  0  0  0  0
 21 22  2  0  0  0  0
 22 23  1  0  0  0  0
 22 29  1  0  0  0  0
 23 24  2  0  0  0  0
 24 25  1  0  0  0  0
 25 26  1  0  0  0  0
 25 28  1  0  0  0  0
 26 27  2  0  0  0  0
 27 28  2  0  0  0  0
 29 30  1  0  0  0  0
 30 31  1  0  0  0  0
 30 40  1  0  0  0  0
 30 51  1  1  0  0  0
 31 32  1  6  0  0  0
 32 33  2  0  0  0  0
 32 38  1  0  0  0  0
 33 34  1  0  0  0  0
 33 35  1  0  0  0  0
 35 36  2  0  0  0  0
 36 37  1  0  0  0  0
 37 38  2  0  0  0  0
 37 44  1  0  0  0  0
 38 39  1  0  0  0  0
 39 40  1  0  0  0  0
 39 42  2  0  0  0  0
 40 41  2  0  0  0  0
 42 43  1  0  0  0  0
 43 44  2  0  0  0  0
 43 45  1  0  0  0  0
 45 46  1  0  0  0  0
 45 50  1  0  0  0  0
 46 47  1  0  0  0  0
 47 48  1  0  0  0  0
 48 49  2  0  0  0  0
 49 50  2  0  0  0  0
M  END
$$$$