
 OpenBabel11232003063D

 54 62  0  0  1  0  0  0  0  0999 V2000
   -1.1565    1.0635   -1.4513 O   0  0  0  0  0  0  0  0  0  0  0  0
   -1.0302    1.5792   -2.7148 C   0  0  0  0  0  0  0  0  0  0  0  0
   -0.2462    2.6265   -2.9993 C   0  0  0  0  0  0  0  0  0  0  0  0
    0.4527    3.3064   -2.0101 O   0  0  0  0  0  0  0  0  0  0  0  0
    1.8004    3.5775   -2.3788 C   0  0  2  0  0  0  0  0  0  0  0  0
    2.5453    4.0037   -1.2182 O   0  0  0  0  0  0  0  0  0  0  0  0
    2.6312    5.3276   -0.8174 C   0  0  0  0  0  0  0  0  0  0  0  0
    3.7342    5.7760   -0.1708 C   0  0  0  0  0  0  0  0  0  0  0  0
    3.9148    7.1409    0.1130 O   0  0  0  0  0  0  0  0  0  0  0  0
    3.0448    8.0891   -0.4287 C   0  0  0  0  0  0  0  0  0  0  0  0
    1.8651    7.7152   -0.9432 C   0  0  0  0  0  0  0  0  0  0  0  0
    1.4647    6.2619   -1.0447 C   0  0  0  0  0  0  0  0  0  0  0  0
    0.9179    8.7058   -1.5244 C   0  0  3  0  0  0  0  0  0  0  0  0
   -0.3699    8.5051   -0.9767 O   0  0  0  0  0  0  0  0  0  0  0  0
   -1.3393    9.2064   -1.6373 C   0  0  0  0  0  0  0  0  0  0  0  0
   -2.5060    8.8843   -1.6616 O   0  0  0  0  0  0  0  0  0  0  0  0
   -0.8392   10.3256   -2.2487 O   0  0  0  0  0  0  0  0  0  0  0  0
    0.0985   10.9837   -1.4369 C   0  0  3  0  0  0  0  0  0  0  0  0
    1.3175   10.1288   -1.2028 C   0  0  0  0  0  0  0  0  0  0  0  0
    2.5639   10.4790   -0.7605 C   0  0  0  0  0  0  0  0  0  0  0  0
    3.4559    9.4177   -0.4103 O   0  3  0  0  0  0  0  0  0  0  0  0
    3.0237   11.9102   -0.5075 C   0  0  0  0  0  0  0  0  0  0  0  0
    2.5100   13.1245   -1.2460 N   0  3  0  0  0  0  0  0  0  0  0  0
    3.4678   12.7743   -1.6797 N   0  3  0  0  0  0  0  0  0  0  0  0
    0.5866   12.1361   -2.1184 O   0  0  0  0  0  0  0  0  0  0  0  0
    4.7822    4.8463    0.3849 C   0  0  0  0  0  0  0  0  0  0  0  0
    4.3016    3.6437    0.7740 N   0  0  0  0  0  0  0  0  0  0  0  0
    5.1046    2.7556    1.3408 N   0  3  0  0  0  0  0  0  0  0  0  0
    4.5891    1.5659    1.7072 F   0  0  0  0  0  0  0  0  0  0  0  0
    6.3924    3.0106    1.5874 C   0  0  0  0  0  0  0  0  0  0  0  0
    6.9426    4.2435    1.2518 C   0  0  0  0  0  0  0  0  0  0  0  0
    6.1303    5.1995    0.6152 C   0  0  0  0  0  0  0  0  0  0  0  0
    6.7408    6.4275    0.2779 C   0  0  0  0  0  0  0  0  0  0  0  0
    8.0697    6.7136    0.6287 C   0  0  0  0  0  0  0  0  0  0  0  0
    8.5914    8.0549    0.3765 C   0  0  0  0  0  0  0  0  0  0  0  0
    7.8433    8.9253   -0.0615 O   0  0  0  0  0  0  0  0  0  0  0  0
   10.0133    8.3164    0.8186 C   0  0  0  0  0  0  0  0  0  0  0  0
   10.3438    9.4684    1.0556 O   0  0  0  0  0  0  0  0  0  0  0  0
   10.8715    7.0730    0.9780 C   0  0  1  0  0  0  0  0  0  0  0  0
   10.1683    5.9723    1.5941 O   0  0  0  0  0  0  0  0  0  0  0  0
    8.8623    5.7725    1.2571 C   0  0  0  0  0  0  0  0  0  0  0  0
    8.2868    4.5369    1.5535 C   0  0  0  0  0  0  0  0  0  0  0  0
    9.0237    3.5950    2.1586 F   0  0  0  0  0  0  0  0  0  0  0  0
   11.5517    6.6860   -0.3135 C   0  0  1  0  0  0  0  0  0  0  0  0
   12.4336    7.6661   -0.8878 O   0  0  0  0  0  0  0  0  0  0  0  0
   11.9770    5.3200   -0.4234 O   0  0  0  0  0  0  0  0  0  0  0  0
   10.9967    5.7183   -1.2503 C   0  0  0  0  0  0  0  0  0  0  0  0
    9.8508    5.3528   -1.4055 O   0  0  0  0  0  0  0  0  0  0  0  0
    1.8797    4.4902   -3.6062 C   0  0  0  0  0  0  0  0  0  0  0  0
    2.6475    5.4428   -3.7208 O   0  0  0  0  0  0  0  0  0  0  0  0
    0.8128    4.2100   -4.6354 C   0  0  0  0  0  0  0  0  0  0  0  0
    0.7048    4.9757   -5.5802 O   0  0  0  0  0  0  0  0  0  0  0  0
   -0.1618    3.0711   -4.4195 C   0  0  0  0  0  0  0  0  0  0  0  0
   -0.7853    2.5819   -5.3417 O   0  0  0  0  0  0  0  0  0  0  0  0
  1  2  1  0  0  0  0
  2  3  2  0  0  0  0
  3  4  1  0  0  0  0
  3 53  1  0  0  0  0
  4  5  1  0  0  0  0
  5  6  1  1  0  0  0
  5 49  1  0  0  0  0
  6  7  1  0  0  0  0
  7  8  2  0  0  0  0
  7 12  1  0  0  0  0
  8  9  1  0  0  0  0
  8 26  1  0  0  0  0
  9 10  1  0  0  0  0
 10 11  2  0  0  0  0
 10 21  1  0  0  0  0
 11 12  1  0  0  0  0
 11 13  1  0  0  0  0
 13 14  1  0  0  0  0
 13 19  1  0  0  0  0
 14 15  1  0  0  0  0
 15 16  2  0  0  0  0
 15 17  1  0  0  0  0
 17 18  1  0  0  0  0
 18 19  1  0  0  0  0
 18 25  1  0  0  0  0
 19 20  2  0  0  0  0
 20 21  1  0  0  0  0
 20 22  1  0  0  0  0
 22 23  1  0  0  0  0
 22 24  1  0  0  0  0
 23 24  3  0  0  0  0
 26 27  2  0  0  0  0
 26 32  1  0  0  0  0
 27 28  1  0  0  0  0
 28 29  1  0  0  0  0
 28 30  2  0  0  0  0
 30 31  1  0  0  0  0
 31 32  2  0  0  0  0
 31 42  1  0  0  0  0
 32 33  1  0  0  0  0
 33 34  2  0  0  0  0
 34 35  1  0  0  0  0
 34 41  1  0  0  0  0
 35 36  2  0  0  0  0
 35 37  1  0  0  0  0
 37 38  2  0  0  0  0
 39 37  1  6  0  0  0
 39 40  1  0  0  0  0
 39 44  1  0  0  0  0
 40 41  1  0  0  0  0
 41 42  2  0  0  0  0
 42 43  1  0  0  0  0
 44 45  1  6  0  0  0
 44 46  1  0  0  0  0
 44 47  1  0  0  0  0
 46 47  1  0  0  0  0
 47 48  2  0  0  0  0
 49 50  2  0  0  0  0
 49 51  1  0  0  0  0
 51 52  2  0  0  0  0
 51 53  1  0  0  0  0
 53 54  2  0  0  0  0
M  CHG  4  21   1  23   1  24   1  28   1
M  END
$$$$