
 OpenBabel11222021593D

 54 63  0  0  1  0  0  0  0  0999 V2000
    4.8948  -12.6312   -3.8104 O   0  0  0  0  0  0  0  0  0  0  0  0
    3.9664  -12.2216   -4.7329 C   0  0  0  0  0  0  0  0  0  0  0  0
    3.8162  -10.9404   -5.0897 C   0  0  0  0  0  0  0  0  0  0  0  0
    4.5827   -9.9488   -4.4966 O   0  0  0  0  0  0  0  0  0  0  0  0
    4.8664   -8.8427   -5.3283 C   0  0  2  0  0  0  0  0  0  0  0  0
    5.5415   -7.8010   -4.5777 O   0  0  0  0  0  0  0  0  0  0  0  0
    6.9251   -7.7620   -4.5594 C   0  0  0  0  0  0  0  0  0  0  0  0
    7.5845   -6.5829   -4.4393 C   0  0  0  0  0  0  0  0  0  0  0  0
    8.9813   -6.5378   -4.3592 O   0  0  0  0  0  0  0  0  0  0  0  0
    9.7310   -7.7085   -4.2582 C   0  0  0  0  0  0  0  0  0  0  0  0
    9.1533   -8.9192   -4.3702 C   0  0  0  0  0  0  0  0  0  0  0  0
    7.6690   -9.0810   -4.5516 C   0  0  0  0  0  0  0  0  0  0  0  0
    9.9625  -10.1908   -4.3203 C   0  0  3  0  0  0  0  0  0  0  0  0
    9.8425  -10.8243   -5.5831 O   0  0  0  0  0  0  0  0  0  0  0  0
   10.5132  -12.0026   -5.7290 C   0  0  0  0  0  0  0  0  0  0  0  0
   10.2636  -12.7732   -6.6394 O   0  0  0  0  0  0  0  0  0  0  0  0
   11.4332  -12.2606   -4.7665 O   0  0  0  0  0  0  0  0  0  0  0  0
   12.1856  -11.1899   -4.2115 C   0  0  3  0  0  0  0  0  0  0  0  0
   11.4092   -9.9214   -4.1501 C   0  0  0  0  0  0  0  0  0  0  0  0
   11.9193   -8.6790   -4.0075 C   0  0  0  0  0  0  0  0  0  0  0  0
   11.0864   -7.5733   -4.0456 O   0  3  0  0  0  0  0  0  0  0  0  0
   13.3638   -8.3939   -3.8449 C   0  0  0  0  0  0  0  0  0  0  0  0
   14.1876   -8.1158   -4.9838 O   0  0  0  0  0  0  0  0  0  0  0  0
   13.8664   -7.0622   -4.0556 O   0  0  0  0  0  0  0  0  0  0  0  0
   12.4832  -11.4922   -2.8633 O   0  0  0  0  0  0  0  0  0  0  0  0
    6.9142   -5.2313   -4.3716 C   0  0  0  0  0  0  0  0  0  0  0  0
    5.7733   -4.9998   -5.1395 C   0  0  0  0  0  0  0  0  0  0  0  0
    5.1102   -3.8413   -5.0938 N   0  3  0  0  0  0  0  0  0  0  0  0
    3.9719   -3.7104   -5.8031 F   0  0  0  0  0  0  0  0  0  0  0  0
    5.5380   -2.8110   -4.3932 N   0  0  0  0  0  0  0  0  0  0  0  0
    6.6571   -2.9186   -3.6755 C   0  0  0  0  0  0  0  0  0  0  0  0
    7.3855   -4.1287   -3.6053 C   0  0  0  0  0  0  0  0  0  0  0  0
    8.5399   -4.1408   -2.7834 C   0  0  0  0  0  0  0  0  0  0  0  0
    9.0002   -2.9895   -2.1306 C   0  0  0  0  0  0  0  0  0  0  0  0
    8.2783   -1.8153   -2.2019 C   0  0  0  0  0  0  0  0  0  0  0  0
    7.1194   -1.7972   -2.9755 C   0  0  0  0  0  0  0  0  0  0  0  0
    6.4231   -0.6536   -3.0633 F   0  0  0  0  0  0  0  0  0  0  0  0
    8.6655   -0.6690   -1.5564 O   0  0  0  0  0  0  0  0  0  0  0  0
    9.5331   -0.9039   -0.4150 C   0  0  1  0  0  0  0  0  0  0  0  0
   10.6990   -1.7644   -0.6709 C   0  0  0  0  0  0  0  0  0  0  0  0
   11.8421   -1.5512   -0.3156 O   0  0  0  0  0  0  0  0  0  0  0  0
   10.2865   -3.0216   -1.4173 C   0  0  0  0  0  0  0  0  0  0  0  0
   10.9785   -4.0292   -1.4700 O   0  0  0  0  0  0  0  0  0  0  0  0
    9.6911    0.1600    0.4852 O   0  0  0  0  0  0  0  0  0  0  0  0
    8.9394   -0.9956    0.9609 C   0  0  1  0  0  0  0  0  0  0  0  0
    7.4816   -1.0184    0.7713 O   0  0  0  0  0  0  0  0  0  0  0  0
    7.9505   -0.4946    1.8884 C   0  0  0  0  0  0  0  0  0  0  0  0
    7.7063   -0.7739    3.0405 O   0  0  0  0  0  0  0  0  0  0  0  0
    3.6100   -8.1768   -5.8609 C   0  0  0  0  0  0  0  0  0  0  0  0
    3.4374   -6.9632   -5.9251 O   0  0  0  0  0  0  0  0  0  0  0  0
    2.6107   -9.1564   -6.4119 C   0  0  0  0  0  0  0  0  0  0  0  0
    1.7185   -8.7441   -7.1339 O   0  0  0  0  0  0  0  0  0  0  0  0
    2.7731  -10.6307   -6.1122 C   0  0  0  0  0  0  0  0  0  0  0  0
    2.1272  -11.4741   -6.7088 O   0  0  0  0  0  0  0  0  0  0  0  0
  1  2  1  0  0  0  0
  2  3  2  0  0  0  0
  3  4  1  0  0  0  0
  3 53  1  0  0  0  0
  4  5  1  0  0  0  0
  5  6  1  1  0  0  0
  5 49  1  0  0  0  0
  6  7  1  0  0  0  0
  7  8  2  0  0  0  0
  7 12  1  0  0  0  0
  8  9  1  0  0  0  0
  8 26  1  0  0  0  0
  9 10  1  0  0  0  0
 10 11  2  0  0  0  0
 10 21  1  0  0  0  0
 11 12  1  0  0  0  0
 11 13  1  0  0  0  0
 13 14  1  0  0  0  0
 13 19  1  0  0  0  0
 14 15  1  0  0  0  0
 15 16  2  0  0  0  0
 15 17  1  0  0  0  0
 17 18  1  0  0  0  0
 18 19  1  0  0  0  0
 18 25  1  0  0  0  0
 19 20  2  0  0  0  0
 20 21  1  0  0  0  0
 20 22  1  0  0  0  0
 22 23  1  0  0  0  0
 22 24  1  0  0  0  0
 23 24  1  0  0  0  0
 26 27  2  0  0  0  0
 26 32  1  0  0  0  0
 27 28  1  0  0  0  0
 28 29  1  0  0  0  0
 28 30  2  0  0  0  0
 30 31  1  0  0  0  0
 31 32  2  0  0  0  0
 31 36  1  0  0  0  0
 32 33  1  0  0  0  0
 33 34  2  0  0  0  0
 34 35  1  0  0  0  0
 34 42  1  0  0  0  0
 35 36  2  0  0  0  0
 35 38  1  0  0  0  0
 36 37  1  0  0  0  0
 39 38  1  6  0  0  0
 39 40  1  0  0  0  0
 39 44  1  0  0  0  0
 39 45  1  0  0  0  0
 40 41  2  0  0  0  0
 40 42  1  0  0  0  0
 42 43  2  0  0  0  0
 45 44  1  6  0  0  0
 45 46  1  0  0  0  0
 45 47  1  0  0  0  0
 46 47  1  0  0  0  0
 47 48  2  0  0  0  0
 49 50  2  0  0  0  0
 49 51  1  0  0  0  0
 51 52  2  0  0  0  0
 51 53  1  0  0  0  0
 53 54  2  0  0  0  0
M  CHG  2  21   1  28   1
M  END
$$$$