
 OpenBabel11272002453D

 54 62  0  0  1  0  0  0  0  0999 V2000
   -2.0346    1.4434   -3.7258 O   0  0  0  0  0  0  0  0  0  0  0  0
   -1.4804    0.7051   -2.7138 C   0  0  0  0  0  0  0  0  0  0  0  0
   -0.1885    0.8035   -2.3814 C   0  0  0  0  0  0  0  0  0  0  0  0
    0.6171    1.7197   -3.0226 O   0  0  0  0  0  0  0  0  0  0  0  0
    2.0194    1.5237   -3.0065 C   0  0  2  0  0  0  0  0  0  0  0  0
    2.5080    1.3568   -4.3488 O   0  0  0  0  0  0  0  0  0  0  0  0
    2.4243    2.4409   -5.2168 C   0  0  0  0  0  0  0  0  0  0  0  0
    2.2867    2.2613   -6.5481 C   0  0  0  0  0  0  0  0  0  0  0  0
    2.2733    3.3090   -7.4666 O   0  0  0  0  0  0  0  0  0  0  0  0
    2.4289    4.6153   -7.0224 C   0  0  0  0  0  0  0  0  0  0  0  0
    2.5829    4.9013   -5.7156 C   0  0  0  0  0  0  0  0  0  0  0  0
    2.6005    3.8289   -4.6614 C   0  0  0  0  0  0  0  0  0  0  0  0
    2.6947    6.3164   -5.2250 C   0  0  3  0  0  0  0  0  0  0  0  0
    3.9201    6.4774   -4.5498 O   0  0  0  0  0  0  0  0  0  0  0  0
    4.1186    7.7101   -4.0040 C   0  0  0  0  0  0  0  0  0  0  0  0
    4.8394    7.8566   -3.0304 O   0  0  0  0  0  0  0  0  0  0  0  0
    3.4830    8.7515   -4.6038 O   0  0  0  0  0  0  0  0  0  0  0  0
    2.8900    8.6369   -5.8058 C   0  0  0  0  0  0  0  0  0  0  0  0
    2.4505    9.5985   -6.4185 O   0  0  0  0  0  0  0  0  0  0  0  0
    2.7111    7.2842   -6.3334 C   0  0  0  0  0  0  0  0  0  0  0  0
    2.5598    6.9478   -7.6348 C   0  0  0  0  0  0  0  0  0  0  0  0
    2.4051    5.6063   -7.9763 O   0  3  0  0  0  0  0  0  0  0  0  0
    2.5428    7.8851   -8.7930 C   0  0  0  0  0  0  0  0  0  0  0  0
    2.9932    7.4363  -10.0859 O   0  0  0  0  0  0  0  0  0  0  0  0
    1.5960    7.6922   -9.8592 O   0  0  0  0  0  0  0  0  0  0  0  0
    2.1705    0.9280   -7.1686 C   0  0  0  0  0  0  0  0  0  0  0  0
    3.3578    0.3900   -7.5310 N   0  0  0  0  0  0  0  0  0  0  0  0
    3.3349   -0.8486   -8.0605 C   0  0  0  0  0  0  0  0  0  0  0  0
    4.5110   -1.4121   -8.3654 F   0  0  0  0  0  0  0  0  0  0  0  0
    2.1814   -1.5670   -8.2998 C   0  0  0  0  0  0  0  0  0  0  0  0
    0.9530   -1.0018   -7.9471 C   0  0  0  0  0  0  0  0  0  0  0  0
    0.9248    0.2853   -7.3634 C   0  0  0  0  0  0  0  0  0  0  0  0
   -0.3330    0.8283   -7.0101 C   0  0  0  0  0  0  0  0  0  0  0  0
   -1.5087    0.0841   -7.1730 C   0  0  0  0  0  0  0  0  0  0  0  0
   -2.8028    0.6517   -6.7782 C   0  0  0  0  0  0  0  0  0  0  0  0
   -2.9163    1.8278   -6.4712 O   0  0  0  0  0  0  0  0  0  0  0  0
   -3.9819   -0.2946   -6.7442 C   0  0  0  0  0  0  0  0  0  0  0  0
   -5.1139    0.1289   -6.5670 O   0  0  0  0  0  0  0  0  0  0  0  0
   -3.6066   -1.7577   -6.8278 C   0  0  1  0  0  0  0  0  0  0  0  0
   -2.5695   -2.0042   -7.7967 O   0  0  0  0  0  0  0  0  0  0  0  0
   -1.4695   -1.2006   -7.6921 C   0  0  0  0  0  0  0  0  0  0  0  0
   -0.2478   -1.7101   -8.1268 C   0  0  0  0  0  0  0  0  0  0  0  0
   -0.2139   -2.9298   -8.6872 F   0  0  0  0  0  0  0  0  0  0  0  0
   -3.2621   -2.3739   -5.4935 C   0  0  1  0  0  0  0  0  0  0  0  0
   -2.9080   -3.7702   -5.5025 O   0  0  0  0  0  0  0  0  0  0  0  0
   -2.4357   -1.5979   -4.6337 O   0  0  0  0  0  0  0  0  0  0  0  0
   -3.7121   -1.8069   -4.2199 C   0  0  0  0  0  0  0  0  0  0  0  0
   -4.5176   -0.9637   -3.9124 O   0  0  0  0  0  0  0  0  0  0  0  0
    2.5765    0.4147   -2.1026 C   0  0  0  0  0  0  0  0  0  0  0  0
    3.6661   -0.1192   -2.3078 O   0  0  0  0  0  0  0  0  0  0  0  0
    1.7474    0.1498   -0.8754 C   0  0  3  0  0  0  0  0  0  0  0  0
    0.3090   -0.0564   -1.2613 C   0  0  0  0  0  0  0  0  0  0  0  0
   -0.4403   -0.8355   -0.6770 O   0  0  0  0  0  0  0  0  0  0  0  0
    2.2353   -0.8970   -0.1461 F   0  0  0  0  0  0  0  0  0  0  0  0
  1  2  1  0  0  0  0
  2  3  2  0  0  0  0
  3  4  1  0  0  0  0
  3 52  1  0  0  0  0
  4  5  1  0  0  0  0
  5  6  1  6  0  0  0
  5 49  1  0  0  0  0
  6  7  1  0  0  0  0
  7  8  2  0  0  0  0
  7 12  1  0  0  0  0
  8  9  1  0  0  0  0
  8 26  1  0  0  0  0
  9 10  1  0  0  0  0
 10 11  2  0  0  0  0
 10 22  1  0  0  0  0
 11 12  1  0  0  0  0
 11 13  1  0  0  0  0
 13 14  1  0  0  0  0
 13 20  1  0  0  0  0
 14 15  1  0  0  0  0
 15 16  2  0  0  0  0
 15 17  1  0  0  0  0
 17 18  1  0  0  0  0
 18 19  2  0  0  0  0
 18 20  1  0  0  0  0
 20 21  2  0  0  0  0
 21 22  1  0  0  0  0
 21 23  1  0  0  0  0
 23 24  1  0  0  0  0
 23 25  1  0  0  0  0
 24 25  1  0  0  0  0
 26 27  2  0  0  0  0
 26 32  1  0  0  0  0
 27 28  1  0  0  0  0
 28 29  1  0  0  0  0
 28 30  2  0  0  0  0
 30 31  1  0  0  0  0
 31 32  2  0  0  0  0
 31 42  1  0  0  0  0
 32 33  1  0  0  0  0
 33 34  2  0  0  0  0
 34 35  1  0  0  0  0
 34 41  1  0  0  0  0
 35 36  2  0  0  0  0
 35 37  1  0  0  0  0
 37 38  2  0  0  0  0
 39 37  1  1  0  0  0
 39 40  1  0  0  0  0
 39 44  1  0  0  0  0
 40 41  1  0  0  0  0
 41 42  2  0  0  0  0
 42 43  1  0  0  0  0
 44 45  1  6  0  0  0
 44 46  1  0  0  0  0
 44 47  1  0  0  0  0
 46 47  1  0  0  0  0
 47 48  2  0  0  0  0
 49 50  2  0  0  0  0
 49 51  1  0  0  0  0
 51 52  1  0  0  0  0
 51 54  1  0  0  0  0
 52 53  2  0  0  0  0
M  CHG  1  22   1
M  END
$$$$