
 OpenBabel09222003583D

 52 60  0  0  1  0  0  0  0  0999 V2000
    1.9513    0.3679   -0.3878 O   0  0  0  0  0  0  0  0  0  0  0  0
    1.6637   -0.3557    0.5522 C   0  0  0  0  0  0  0  0  0  0  0  0
    2.3872   -0.5795    1.7018 O   0  0  0  0  0  0  0  0  0  0  0  0
    3.7678   -0.4343    1.5592 C   0  0  0  0  0  0  0  0  0  0  0  0
    4.4344   -1.5987    1.7208 N   0  0  0  0  0  0  0  0  0  0  0  0
    5.7812   -1.5624    1.6806 C   0  0  0  0  0  0  0  0  0  0  0  0
    6.3838   -2.7830    1.8558 O   0  0  0  0  0  0  0  0  0  0  0  0
    7.7540   -2.9273    1.6568 C   0  0  0  0  0  0  0  0  0  0  0  0
    8.5761   -1.8563    1.4726 C   0  0  0  0  0  0  0  0  0  0  0  0
    7.9953   -0.4646    1.4635 C   0  0  0  0  0  0  0  0  0  0  0  0
    6.5069   -0.4043    1.4929 C   0  0  0  0  0  0  0  0  0  0  0  0
    5.7902    0.7912    1.3770 C   0  0  0  0  0  0  0  0  0  0  0  0
    4.3950    0.7972    1.4301 C   0  0  0  0  0  0  0  0  0  0  0  0
    3.6849    2.0985    1.2541 C   0  0  0  0  0  0  0  0  0  0  0  0
    4.5137    3.2265    1.6037 N   0  0  0  0  0  0  0  0  0  0  0  0
    5.8487    3.2349    1.3560 C   0  0  0  0  0  0  0  0  0  0  0  0
    6.4885    4.2791    1.3063 O   0  0  0  0  0  0  0  0  0  0  0  0
    6.4522    2.0207    1.2276 N   0  0  0  0  0  0  0  0  0  0  0  0
    9.9383   -1.9972    1.2126 O   0  0  0  0  0  0  0  0  0  0  0  0
   10.8504   -0.9004    1.3488 C   0  0  1  0  0  0  0  0  0  0  0  0
   10.7425   -0.2891    2.6376 O   0  0  0  0  0  0  0  0  0  0  0  0
   11.7467    0.6731    2.9855 C   0  0  1  0  0  0  0  0  0  0  0  0
   12.8116    0.0231    3.8145 C   0  0  0  0  0  0  0  0  0  0  0  0
   12.3499   -0.4929    5.0674 O   0  0  0  0  0  0  0  0  0  0  0  0
   13.1571    0.7052    5.0214 O   0  0  0  0  0  0  0  0  0  0  0  0
   12.2864    1.4741    1.8177 C   0  0  0  0  0  0  0  0  0  0  0  0
   13.3708    2.0254    1.7446 O   0  0  0  0  0  0  0  0  0  0  0  0
   11.3364    1.4747    0.6544 C   0  0  0  0  0  0  0  0  0  0  0  0
   10.9639    2.5188    0.1505 O   0  0  0  0  0  0  0  0  0  0  0  0
   10.7915    0.1398    0.2167 C   0  0  0  0  0  0  0  0  0  0  0  0
   10.3772   -0.0271   -0.9184 O   0  0  0  0  0  0  0  0  0  0  0  0
    8.1548   -4.3737    1.5462 C   0  0  0  0  0  0  0  0  0  0  0  0
    9.1388   -4.5806    0.6297 N   0  0  0  0  0  0  0  0  0  0  0  0
    9.5301   -5.8392    0.3698 C   0  0  0  0  0  0  0  0  0  0  0  0
    9.0005   -6.9507    0.9858 C   0  0  0  0  0  0  0  0  0  0  0  0
    8.0097   -6.7764    1.9465 C   0  0  0  0  0  0  0  0  0  0  0  0
    7.5352   -5.4694    2.2501 C   0  0  0  0  0  0  0  0  0  0  0  0
    6.5141   -5.4046    3.2434 C   0  0  0  0  0  0  0  0  0  0  0  0
    6.0849   -6.5481    3.9463 C   0  0  0  0  0  0  0  0  0  0  0  0
    6.6081   -7.8001    3.6566 C   0  0  0  0  0  0  0  0  0  0  0  0
    7.5253   -7.9154    2.6196 C   0  0  0  0  0  0  0  0  0  0  0  0
    6.3155   -8.9533    4.3319 O   0  0  0  0  0  0  0  0  0  0  0  0
    5.7611   -8.7959    5.6496 C   0  0  2  0  0  0  0  0  0  0  0  0
    4.7021   -7.7223    5.7069 C   0  0  0  0  0  0  0  0  0  0  0  0
    3.6106   -7.8525    6.2397 O   0  0  0  0  0  0  0  0  0  0  0  0
    5.1250   -6.4267    5.0534 C   0  0  0  0  0  0  0  0  0  0  0  0
    4.7360   -5.3503    5.4731 O   0  0  0  0  0  0  0  0  0  0  0  0
    6.8485   -8.6499    6.6887 C   0  0  1  0  0  0  0  0  0  0  0  0
    7.7674   -9.7615    6.8091 O   0  0  0  0  0  0  0  0  0  0  0  0
    7.4619   -7.3509    6.7663 O   0  0  0  0  0  0  0  0  0  0  0  0
    6.7649   -7.7584    7.8253 C   0  0  0  0  0  0  0  0  0  0  0  0
    5.8210   -7.2669    8.4279 O   0  0  0  0  0  0  0  0  0  0  0  0
  1  2  2  0  0  0  0
  2  3  1  0  0  0  0
  3  4  1  0  0  0  0
  4  5  2  0  0  0  0
  4 13  1  0  0  0  0
  5  6  1  0  0  0  0
  6  7  1  0  0  0  0
  6 11  2  0  0  0  0
  7  8  1  0  0  0  0
  8  9  2  0  0  0  0
  8 32  1  0  0  0  0
  9 10  1  0  0  0  0
  9 19  1  0  0  0  0
 10 11  1  0  0  0  0
 11 12  1  0  0  0  0
 12 13  2  0  0  0  0
 12 18  1  0  0  0  0
 13 14  1  0  0  0  0
 14 15  1  0  0  0  0
 15 16  1  0  0  0  0
 16 17  2  0  0  0  0
 16 18  1  0  0  0  0
 20 19  1  1  0  0  0
 20 21  1  0  0  0  0
 20 30  1  0  0  0  0
 21 22  1  0  0  0  0
 22 26  1  0  0  0  0
 22 23  1  6  0  0  0
 23 24  1  0  0  0  0
 23 25  1  0  0  0  0
 24 25  1  0  0  0  0
 26 27  2  0  0  0  0
 26 28  1  0  0  0  0
 28 29  2  0  0  0  0
 28 30  1  0  0  0  0
 30 31  2  0  0  0  0
 32 33  2  0  0  0  0
 32 37  1  0  0  0  0
 33 34  1  0  0  0  0
 34 35  2  0  0  0  0
 35 36  1  0  0  0  0
 36 37  2  0  0  0  0
 36 41  1  0  0  0  0
 37 38  1  0  0  0  0
 38 39  2  0  0  0  0
 39 40  1  0  0  0  0
 39 46  1  0  0  0  0
 40 41  2  0  0  0  0
 40 42  1  0  0  0  0
 43 42  1  6  0  0  0
 43 44  1  0  0  0  0
 43 48  1  0  0  0  0
 44 45  2  0  0  0  0
 44 46  1  0  0  0  0
 46 47  2  0  0  0  0
 48 49  1  1  0  0  0
 48 50  1  0  0  0  0
 48 51  1  0  0  0  0
 50 51  1  0  0  0  0
 51 52  2  0  0  0  0
M  END
$$$$