
 OpenBabel11222001083D

 54 62  0  0  1  0  0  0  0  0999 V2000
   -0.7327    5.3268   -0.6525 O   0  0  0  0  0  0  0  0  0  0  0  0
   -1.1763    4.0275   -0.7012 C   0  0  0  0  0  0  0  0  0  0  0  0
   -0.7363    3.1434   -1.6034 C   0  0  0  0  0  0  0  0  0  0  0  0
    0.1229    3.4986   -2.6178 O   0  0  0  0  0  0  0  0  0  0  0  0
    1.3416    2.7575   -2.6264 C   0  0  2  0  0  0  0  0  0  0  0  0
    2.0876    3.0017   -3.8394 O   0  0  0  0  0  0  0  0  0  0  0  0
    2.1680    4.3085   -4.3081 C   0  0  0  0  0  0  0  0  0  0  0  0
    2.3296    4.5656   -5.6258 C   0  0  0  0  0  0  0  0  0  0  0  0
    2.4467    5.8628   -6.1340 O   0  0  0  0  0  0  0  0  0  0  0  0
    2.3614    6.9567   -5.2742 C   0  0  0  0  0  0  0  0  0  0  0  0
    2.2298    6.7969   -3.9451 C   0  0  0  0  0  0  0  0  0  0  0  0
    2.1475    5.4422   -3.3089 C   0  0  0  0  0  0  0  0  0  0  0  0
    2.0691    7.9628   -3.0122 C   0  0  3  0  0  0  0  0  0  0  0  0
    3.1047    7.9319   -2.0461 O   0  0  0  0  0  0  0  0  0  0  0  0
    2.9867    8.8730   -1.0673 C   0  0  0  0  0  0  0  0  0  0  0  0
    3.5265    8.7543    0.0201 O   0  0  0  0  0  0  0  0  0  0  0  0
    2.1822    9.9197   -1.3870 O   0  0  0  0  0  0  0  0  0  0  0  0
    2.2009   10.3822   -2.7318 C   0  0  3  0  0  0  0  0  0  0  0  0
    2.2127    9.2588   -3.7128 C   0  0  0  0  0  0  0  0  0  0  0  0
    2.3661    9.3552   -5.0531 C   0  0  0  0  0  0  0  0  0  0  0  0
    2.4072    8.2113   -5.8394 O   0  3  0  0  0  0  0  0  0  0  0  0
    2.5266   10.6480   -5.7592 C   0  0  0  0  0  0  0  0  0  0  0  0
    3.8288   11.2095   -5.9725 O   0  0  0  0  0  0  0  0  0  0  0  0
    3.0731   10.6979   -7.0879 O   0  0  0  0  0  0  0  0  0  0  0  0
    0.9971   11.0830   -2.9815 O   0  0  0  0  0  0  0  0  0  0  0  0
    2.4796    3.5075   -6.6590 C   0  0  0  0  0  0  0  0  0  0  0  0
    3.7819    3.1537   -7.0168 C   0  0  0  0  0  0  0  0  0  0  0  0
    3.9619    2.1947   -7.9905 C   0  0  0  0  0  0  0  0  0  0  0  0
    5.2129    1.8846   -8.3561 F   0  0  0  0  0  0  0  0  0  0  0  0
    2.9600    1.5570   -8.6140 N   0  0  0  0  0  0  0  0  0  0  0  0
    1.6969    1.8236   -8.2413 C   0  0  0  0  0  0  0  0  0  0  0  0
    1.3946    2.8264   -7.2785 C   0  0  0  0  0  0  0  0  0  0  0  0
    0.0401    3.0745   -6.9772 C   0  0  0  0  0  0  0  0  0  0  0  0
   -0.9711    2.2720   -7.5174 C   0  0  0  0  0  0  0  0  0  0  0  0
   -2.3686    2.4913   -7.1300 C   0  0  0  0  0  0  0  0  0  0  0  0
   -2.6917    3.4406   -6.4319 O   0  0  0  0  0  0  0  0  0  0  0  0
   -3.3760    1.4790   -7.6270 C   0  0  0  0  0  0  0  0  0  0  0  0
   -4.5681    1.7470   -7.6602 O   0  0  0  0  0  0  0  0  0  0  0  0
   -2.7667    0.1656   -8.0271 C   0  0  1  0  0  0  0  0  0  0  0  0
   -1.6014    0.3439   -8.8533 O   0  0  0  0  0  0  0  0  0  0  0  0
   -0.6672    1.2355   -8.3870 C   0  0  0  0  0  0  0  0  0  0  0  0
    0.6550    1.0734   -8.8283 C   0  0  0  0  0  0  0  0  0  0  0  0
    0.9680   -0.0199   -9.6799 N   0  0  0  0  0  0  0  0  0  0  0  0
   -2.4819   -0.7206   -6.8364 C   0  0  1  0  0  0  0  0  0  0  0  0
   -1.5758   -0.1896   -5.8315 O   0  0  0  0  0  0  0  0  0  0  0  0
   -3.5919   -1.4146   -6.2924 O   0  0  0  0  0  0  0  0  0  0  0  0
   -2.6702   -2.1512   -6.9264 C   0  0  0  0  0  0  0  0  0  0  0  0
   -2.8000   -2.9037   -7.8834 O   0  0  0  0  0  0  0  0  0  0  0  0
    1.1423    1.2452   -2.5261 C   0  0  0  0  0  0  0  0  0  0  0  0
    2.0378    0.4139   -2.5045 O   0  0  0  0  0  0  0  0  0  0  0  0
   -0.3077    0.8348   -2.3811 C   0  0  0  0  0  0  0  0  0  0  0  0
   -0.7472   -0.1494   -2.9539 O   0  0  0  0  0  0  0  0  0  0  0  0
   -1.2110    1.7395   -1.5658 C   0  0  0  0  0  0  0  0  0  0  0  0
   -2.1773    1.3382   -0.9475 O   0  0  0  0  0  0  0  0  0  0  0  0
  1  2  1  0  0  0  0
  2  3  2  0  0  0  0
  3  4  1  0  0  0  0
  3 53  1  0  0  0  0
  4  5  1  0  0  0  0
  5  6  1  6  0  0  0
  5 49  1  0  0  0  0
  6  7  1  0  0  0  0
  7  8  2  0  0  0  0
  7 12  1  0  0  0  0
  8  9  1  0  0  0  0
  8 26  1  0  0  0  0
  9 10  1  0  0  0  0
 10 11  2  0  0  0  0
 10 21  1  0  0  0  0
 11 12  1  0  0  0  0
 11 13  1  0  0  0  0
 13 14  1  0  0  0  0
 13 19  1  0  0  0  0
 14 15  1  0  0  0  0
 15 16  2  0  0  0  0
 15 17  1  0  0  0  0
 17 18  1  0  0  0  0
 18 19  1  0  0  0  0
 18 25  1  0  0  0  0
 19 20  2  0  0  0  0
 20 21  1  0  0  0  0
 20 22  1  0  0  0  0
 22 23  1  0  0  0  0
 22 24  1  0  0  0  0
 23 24  1  0  0  0  0
 26 27  2  0  0  0  0
 26 32  1  0  0  0  0
 27 28  1  0  0  0  0
 28 29  1  0  0  0  0
 28 30  2  0  0  0  0
 30 31  1  0  0  0  0
 31 32  2  0  0  0  0
 31 42  1  0  0  0  0
 32 33  1  0  0  0  0
 33 34  2  0  0  0  0
 34 35  1  0  0  0  0
 34 41  1  0  0  0  0
 35 36  2  0  0  0  0
 35 37  1  0  0  0  0
 37 38  2  0  0  0  0
 39 37  1  1  0  0  0
 39 40  1  0  0  0  0
 39 44  1  0  0  0  0
 40 41  1  0  0  0  0
 41 42  2  0  0  0  0
 42 43  1  0  0  0  0
 44 45  1  1  0  0  0
 44 46  1  0  0  0  0
 44 47  1  0  0  0  0
 46 47  1  0  0  0  0
 47 48  2  0  0  0  0
 49 50  2  0  0  0  0
 49 51  1  0  0  0  0
 51 52  2  0  0  0  0
 51 53  1  0  0  0  0
 53 54  2  0  0  0  0
M  CHG  1  21   1
M  END
$$$$