
 OpenBabel11252016193D

 54 63  0  0  1  0  0  0  0  0999 V2000
   12.9268   -5.0850   -6.5747 O   0  0  0  0  0  0  0  0  0  0  0  0
   12.8658   -5.0041   -5.2035 C   0  0  0  0  0  0  0  0  0  0  0  0
   11.7412   -4.7028   -4.5446 C   0  0  0  0  0  0  0  0  0  0  0  0
   10.5785   -4.3824   -5.2180 O   0  0  0  0  0  0  0  0  0  0  0  0
    9.4627   -5.1369   -4.7764 C   0  0  2  0  0  0  0  0  0  0  0  0
    8.2463   -4.8181   -5.4923 O   0  0  0  0  0  0  0  0  0  0  0  0
    8.1785   -4.7443   -6.8709 C   0  0  0  0  0  0  0  0  0  0  0  0
    6.9856   -4.5319   -7.4766 C   0  0  0  0  0  0  0  0  0  0  0  0
    6.8879   -4.3402   -8.8636 O   0  0  0  0  0  0  0  0  0  0  0  0
    8.0417   -4.2657   -9.6505 C   0  0  0  0  0  0  0  0  0  0  0  0
    9.2499   -4.5469   -9.1337 C   0  0  0  0  0  0  0  0  0  0  0  0
    9.4481   -4.8308   -7.6793 C   0  0  0  0  0  0  0  0  0  0  0  0
   10.5089   -4.5000   -9.9520 C   0  0  3  0  0  0  0  0  0  0  0  0
   11.0665   -5.8006   -9.9841 O   0  0  0  0  0  0  0  0  0  0  0  0
   12.2778   -5.8818  -10.6031 C   0  0  0  0  0  0  0  0  0  0  0  0
   13.0596   -6.7891  -10.3768 O   0  0  0  0  0  0  0  0  0  0  0  0
   12.5540   -4.8525  -11.4443 O   0  0  0  0  0  0  0  0  0  0  0  0
   11.4903   -4.2383  -12.1640 C   0  0  3  0  0  0  0  0  0  0  0  0
   10.2378   -4.1460  -11.3610 C   0  0  0  0  0  0  0  0  0  0  0  0
    9.0046   -3.8294  -11.8158 C   0  0  0  0  0  0  0  0  0  0  0  0
    7.9057   -3.8807  -10.9676 O   0  3  0  0  0  0  0  0  0  0  0  0
    8.7213   -3.4541  -13.2200 C   0  0  0  0  0  0  0  0  0  0  0  0
    8.2785   -4.4364  -14.1640 O   0  0  0  0  0  0  0  0  0  0  0  0
    7.3663   -3.4215  -13.7023 O   0  0  0  0  0  0  0  0  0  0  0  0
   11.8492   -2.8993  -12.4391 O   0  0  0  0  0  0  0  0  0  0  0  0
    5.6786   -4.4841   -6.7265 C   0  0  0  0  0  0  0  0  0  0  0  0
    5.4813   -5.3737   -5.6670 C   0  0  0  0  0  0  0  0  0  0  0  0
    4.3437   -5.3883   -4.9684 N   0  3  0  0  0  0  0  0  0  0  0  0
    4.2222   -6.2446   -3.9357 F   0  0  0  0  0  0  0  0  0  0  0  0
    3.3224   -4.6109   -5.2570 N   0  0  0  0  0  0  0  0  0  0  0  0
    3.4060   -3.7472   -6.2711 C   0  0  0  0  0  0  0  0  0  0  0  0
    4.5901   -3.6276   -7.0396 C   0  0  0  0  0  0  0  0  0  0  0  0
    4.6010   -2.6679   -8.0760 C   0  0  0  0  0  0  0  0  0  0  0  0
    3.4610   -1.9278   -8.4050 C   0  0  0  0  0  0  0  0  0  0  0  0
    2.3035   -2.0686   -7.6677 C   0  0  0  0  0  0  0  0  0  0  0  0
    2.2793   -2.9444   -6.5682 C   0  0  0  0  0  0  0  0  0  0  0  0
    1.0475   -3.1758   -5.9149 N   0  0  0  0  0  0  0  0  0  0  0  0
    1.1512   -1.3983   -8.0007 O   0  0  0  0  0  0  0  0  0  0  0  0
    1.3713   -0.1065   -8.6232 C   0  0  1  0  0  0  0  0  0  0  0  0
    2.3301   -0.0655   -9.7450 C   0  0  0  0  0  0  0  0  0  0  0  0
    2.3043    0.7424  -10.6566 O   0  0  0  0  0  0  0  0  0  0  0  0
    3.4759   -1.0468   -9.5772 C   0  0  0  0  0  0  0  0  0  0  0  0
    4.4072   -1.1254  -10.3683 O   0  0  0  0  0  0  0  0  0  0  0  0
    0.2356    0.7119   -8.7464 O   0  0  0  0  0  0  0  0  0  0  0  0
    1.2518    1.1357   -7.7884 C   0  0  1  0  0  0  0  0  0  0  0  0
    1.1167    0.6798   -6.3907 O   0  0  0  0  0  0  0  0  0  0  0  0
    0.5534    1.8233   -6.7290 C   0  0  0  0  0  0  0  0  0  0  0  0
    0.6672    2.9269   -6.2487 O   0  0  0  0  0  0  0  0  0  0  0  0
    9.1421   -4.8096   -3.3144 C   0  0  0  0  0  0  0  0  0  0  0  0
    7.9467   -4.9345   -2.8059 N   0  0  0  0  0  0  0  0  0  0  0  0
   10.3454   -4.3797   -2.5069 C   0  0  0  0  0  0  0  0  0  0  0  0
   10.2165   -3.7132   -1.4043 N   0  0  0  0  0  0  0  0  0  0  0  0
   11.7322   -4.6800   -3.0569 C   0  0  0  0  0  0  0  0  0  0  0  0
   12.6842   -4.9372   -2.3469 O   0  0  0  0  0  0  0  0  0  0  0  0
  1  2  1  0  0  0  0
  2  3  2  0  0  0  0
  3  4  1  0  0  0  0
  3 53  1  0  0  0  0
  4  5  1  0  0  0  0
  5  6  1  6  0  0  0
  5 49  1  0  0  0  0
  6  7  1  0  0  0  0
  7  8  2  0  0  0  0
  7 12  1  0  0  0  0
  8  9  1  0  0  0  0
  8 26  1  0  0  0  0
  9 10  1  0  0  0  0
 10 11  2  0  0  0  0
 10 21  1  0  0  0  0
 11 12  1  0  0  0  0
 11 13  1  0  0  0  0
 13 14  1  0  0  0  0
 13 19  1  0  0  0  0
 14 15  1  0  0  0  0
 15 16  2  0  0  0  0
 15 17  1  0  0  0  0
 17 18  1  0  0  0  0
 18 19  1  0  0  0  0
 18 25  1  0  0  0  0
 19 20  2  0  0  0  0
 20 21  1  0  0  0  0
 20 22  1  0  0  0  0
 22 23  1  0  0  0  0
 22 24  1  0  0  0  0
 23 24  1  0  0  0  0
 26 27  2  0  0  0  0
 26 32  1  0  0  0  0
 27 28  1  0  0  0  0
 28 29  1  0  0  0  0
 28 30  2  0  0  0  0
 30 31  1  0  0  0  0
 31 32  2  0  0  0  0
 31 36  1  0  0  0  0
 32 33  1  0  0  0  0
 33 34  2  0  0  0  0
 34 35  1  0  0  0  0
 34 42  1  0  0  0  0
 35 36  2  0  0  0  0
 35 38  1  0  0  0  0
 36 37  1  0  0  0  0
 39 38  1  1  0  0  0
 39 40  1  0  0  0  0
 39 44  1  0  0  0  0
 39 45  1  0  0  0  0
 40 41  2  0  0  0  0
 40 42  1  0  0  0  0
 42 43  2  0  0  0  0
 45 44  1  1  0  0  0
 45 46  1  0  0  0  0
 45 47  1  0  0  0  0
 46 47  1  0  0  0  0
 47 48  2  0  0  0  0
 49 50  2  0  0  0  0
 49 51  1  0  0  0  0
 51 52  2  0  0  0  0
 51 53  1  0  0  0  0
 53 54  2  0  0  0  0
M  CHG  2  21   1  28   1
M  END
$$$$