
 OpenBabel11212016303D

 54 62  0  0  1  0  0  0  0  0999 V2000
   -1.6837    1.4923   -4.7154 O   0  0  0  0  0  0  0  0  0  0  0  0
   -1.7186    0.9267   -3.4652 C   0  0  0  0  0  0  0  0  0  0  0  0
   -0.9781   -0.1355   -3.1324 C   0  0  0  0  0  0  0  0  0  0  0  0
   -0.1810   -0.7694   -4.0674 O   0  0  0  0  0  0  0  0  0  0  0  0
    1.0881   -1.2038   -3.6018 C   0  0  2  0  0  0  0  0  0  0  0  0
    1.6214   -2.1926   -4.5260 O   0  0  0  0  0  0  0  0  0  0  0  0
    1.8269   -1.8214   -5.8505 C   0  0  0  0  0  0  0  0  0  0  0  0
    1.7830   -2.7265   -6.8607 C   0  0  0  0  0  0  0  0  0  0  0  0
    2.0138   -2.3467   -8.1952 O   0  0  0  0  0  0  0  0  0  0  0  0
    2.2236   -1.0054   -8.5325 C   0  0  0  0  0  0  0  0  0  0  0  0
    2.3284   -0.0669   -7.5759 C   0  0  0  0  0  0  0  0  0  0  0  0
    2.1546   -0.3766   -6.1239 C   0  0  0  0  0  0  0  0  0  0  0  0
    2.5712    1.3785   -7.8908 C   0  0  3  0  0  0  0  0  0  0  0  0
    3.8199    1.7477   -7.3380 O   0  0  0  0  0  0  0  0  0  0  0  0
    4.1509    3.0631   -7.4817 C   0  0  0  0  0  0  0  0  0  0  0  0
    5.0154    3.5850   -6.8009 O   0  0  0  0  0  0  0  0  0  0  0  0
    3.4023    3.7345   -8.3895 O   0  0  0  0  0  0  0  0  0  0  0  0
    3.0183    3.0522   -9.5797 C   0  0  3  0  0  0  0  0  0  0  0  0
    2.6940    1.6163   -9.3410 C   0  0  0  0  0  0  0  0  0  0  0  0
    2.5536    0.6421  -10.2667 C   0  0  0  0  0  0  0  0  0  0  0  0
    2.3146   -0.6717   -9.8722 O   0  3  0  0  0  0  0  0  0  0  0  0
    2.6750    0.8822  -11.7247 C   0  0  0  0  0  0  0  0  0  0  0  0
    3.9439    0.7809  -12.3831 O   0  0  0  0  0  0  0  0  0  0  0  0
    2.9260   -0.2101  -12.6245 O   0  0  0  0  0  0  0  0  0  0  0  0
    1.8815    3.6539  -10.0139 F   0  0  0  0  0  0  0  0  0  0  0  0
    1.4659   -4.1863   -6.6561 C   0  0  0  0  0  0  0  0  0  0  0  0
    1.9182   -4.8223   -5.4959 C   0  0  0  0  0  0  0  0  0  0  0  0
    1.5940   -6.0887   -5.2184 N   0  3  0  0  0  0  0  0  0  0  0  0
    2.0427   -6.6429   -4.0752 F   0  0  0  0  0  0  0  0  0  0  0  0
    0.8374   -6.8169   -6.0115 N   0  0  0  0  0  0  0  0  0  0  0  0
    0.3828   -6.2992   -7.1531 C   0  0  0  0  0  0  0  0  0  0  0  0
    0.6984   -4.9813   -7.5534 C   0  0  0  0  0  0  0  0  0  0  0  0
    0.2010   -4.5545   -8.8090 C   0  0  0  0  0  0  0  0  0  0  0  0
   -0.6119   -5.3729   -9.6022 C   0  0  0  0  0  0  0  0  0  0  0  0
   -1.1046   -4.8784  -10.8898 C   0  0  0  0  0  0  0  0  0  0  0  0
   -0.7431   -3.7940  -11.3205 O   0  0  0  0  0  0  0  0  0  0  0  0
   -2.0459   -5.8020  -11.6265 C   0  0  0  0  0  0  0  0  0  0  0  0
   -2.0881   -5.7923  -12.8455 O   0  0  0  0  0  0  0  0  0  0  0  0
   -2.8247   -6.7196  -10.7100 C   0  0  1  0  0  0  0  0  0  0  0  0
   -1.9456   -7.3891   -9.7754 O   0  0  0  0  0  0  0  0  0  0  0  0
   -1.0011   -6.6189   -9.1543 C   0  0  0  0  0  0  0  0  0  0  0  0
   -0.4580   -7.0795   -7.9550 C   0  0  0  0  0  0  0  0  0  0  0  0
   -0.7952   -8.3060   -7.5248 F   0  0  0  0  0  0  0  0  0  0  0  0
   -3.9887   -6.0074  -10.0548 C   0  0  1  0  0  0  0  0  0  0  0  0
   -4.9711   -5.4580  -10.9522 O   0  0  0  0  0  0  0  0  0  0  0  0
   -4.5183   -6.6257   -8.8728 O   0  0  0  0  0  0  0  0  0  0  0  0
   -3.9671   -5.4203   -8.7278 C   0  0  0  0  0  0  0  0  0  0  0  0
   -3.0585   -5.0055   -8.0234 O   0  0  0  0  0  0  0  0  0  0  0  0
    1.1095   -1.8938   -2.2446 C   0  0  0  0  0  0  0  0  0  0  0  0
    2.0868   -2.4310   -1.7451 O   0  0  0  0  0  0  0  0  0  0  0  0
   -0.2341   -1.9091   -1.5775 C   0  0  0  0  0  0  0  0  0  0  0  0
   -0.6516   -2.9365   -1.0731 O   0  0  0  0  0  0  0  0  0  0  0  0
   -1.1018   -0.6893   -1.7567 C   0  0  0  0  0  0  0  0  0  0  0  0
   -1.7778   -0.2253   -0.8608 O   0  0  0  0  0  0  0  0  0  0  0  0
  1  2  1  0  0  0  0
  2  3  2  0  0  0  0
  3  4  1  0  0  0  0
  3 53  1  0  0  0  0
  4  5  1  0  0  0  0
  5  6  1  6  0  0  0
  5 49  1  0  0  0  0
  6  7  1  0  0  0  0
  7  8  2  0  0  0  0
  7 12  1  0  0  0  0
  8  9  1  0  0  0  0
  8 26  1  0  0  0  0
  9 10  1  0  0  0  0
 10 11  2  0  0  0  0
 10 21  1  0  0  0  0
 11 12  1  0  0  0  0
 11 13  1  0  0  0  0
 13 14  1  0  0  0  0
 13 19  1  0  0  0  0
 14 15  1  0  0  0  0
 15 16  2  0  0  0  0
 15 17  1  0  0  0  0
 17 18  1  0  0  0  0
 18 19  1  0  0  0  0
 18 25  1  0  0  0  0
 19 20  2  0  0  0  0
 20 21  1  0  0  0  0
 20 22  1  0  0  0  0
 22 23  1  0  0  0  0
 22 24  1  0  0  0  0
 23 24  1  0  0  0  0
 26 27  2  0  0  0  0
 26 32  1  0  0  0  0
 27 28  1  0  0  0  0
 28 29  1  0  0  0  0
 28 30  2  0  0  0  0
 30 31  1  0  0  0  0
 31 32  2  0  0  0  0
 31 42  1  0  0  0  0
 32 33  1  0  0  0  0
 33 34  2  0  0  0  0
 34 35  1  0  0  0  0
 34 41  1  0  0  0  0
 35 36  2  0  0  0  0
 35 37  1  0  0  0  0
 37 38  2  0  0  0  0
 39 37  1  1  0  0  0
 39 40  1  0  0  0  0
 39 44  1  0  0  0  0
 40 41  1  0  0  0  0
 41 42  2  0  0  0  0
 42 43  1  0  0  0  0
 44 45  1  6  0  0  0
 44 46  1  0  0  0  0
 44 47  1  0  0  0  0
 46 47  1  0  0  0  0
 47 48  2  0  0  0  0
 49 50  2  0  0  0  0
 49 51  1  0  0  0  0
 51 52  2  0  0  0  0
 51 53  1  0  0  0  0
 53 54  2  0  0  0  0
M  CHG  2  21   1  28   1
M  END
$$$$