
 OpenBabel09242006463D

 51 59  0  0  1  0  0  0  0  0999 V2000
    3.9563    1.0755    6.5871 O   0  0  0  0  0  0  0  0  0  0  0  0
    4.2500    0.2820    5.5086 C   0  0  0  0  0  0  0  0  0  0  0  0
    3.5810    0.3520    4.3509 C   0  0  0  0  0  0  0  0  0  0  0  0
    2.5358    1.2381    4.1620 O   0  0  0  0  0  0  0  0  0  0  0  0
    2.7172    2.0133    2.9716 C   0  0  2  0  0  0  0  0  0  0  0  0
    1.8312    3.1405    2.9200 O   0  0  0  0  0  0  0  0  0  0  0  0
    1.9374    4.0993    3.9269 C   0  0  0  0  0  0  0  0  0  0  0  0
    1.1491    5.1974    3.9346 C   0  0  0  0  0  0  0  0  0  0  0  0
    1.2073    6.1816    4.9260 O   0  0  0  0  0  0  0  0  0  0  0  0
    2.1797    6.0928    5.9150 C   0  0  0  0  0  0  0  0  0  0  0  0
    3.0148    5.0478    5.9739 C   0  0  0  0  0  0  0  0  0  0  0  0
    2.9437    3.9064    5.0325 C   0  0  0  0  0  0  0  0  0  0  0  0
    4.0659    5.0257    7.0233 C   0  0  0  0  0  0  0  0  0  0  0  0
    4.9178    4.0556    7.0824 N   0  0  0  0  0  0  0  0  0  0  0  0
    5.8887    4.0684    8.0590 C   0  0  0  0  0  0  0  0  0  0  0  0
    6.6674    3.1234    8.0955 O   0  0  0  0  0  0  0  0  0  0  0  0
    6.0167    5.0786    8.9913 N   0  0  0  0  0  0  0  0  0  0  0  0
    5.1775    6.0572    8.9585 C   0  0  0  0  0  0  0  0  0  0  0  0
    4.1031    6.1580    7.9690 C   0  0  0  0  0  0  0  0  0  0  0  0
    3.2080    7.1597    7.8479 C   0  0  0  0  0  0  0  0  0  0  0  0
    2.2708    7.1202    6.8213 N   0  0  0  0  0  0  0  0  0  0  0  0
    3.1523    8.3417    8.7362 C   0  0  0  0  0  0  0  0  0  0  0  0
    1.9150    9.0108    9.0336 O   0  0  0  0  0  0  0  0  0  0  0  0
    2.6001    8.2655   10.0590 O   0  0  0  0  0  0  0  0  0  0  0  0
    0.1550    5.4767    2.8828 C   0  0  0  0  0  0  0  0  0  0  0  0
   -1.0780    4.9869    3.1312 N   0  0  0  0  0  0  0  0  0  0  0  0
   -2.0041    5.2456    2.2045 C   0  0  0  0  0  0  0  0  0  0  0  0
   -1.8263    5.9651    1.0879 N   0  0  0  0  0  0  0  0  0  0  0  0
   -0.6036    6.4540    0.8659 C   0  0  0  0  0  0  0  0  0  0  0  0
    0.4710    6.2318    1.7394 C   0  0  0  0  0  0  0  0  0  0  0  0
    1.7448    6.7691    1.4244 C   0  0  0  0  0  0  0  0  0  0  0  0
    1.9195    7.5414    0.2735 C   0  0  0  0  0  0  0  0  0  0  0  0
    0.8424    7.8034   -0.5593 C   0  0  0  0  0  0  0  0  0  0  0  0
   -0.3975    7.2309   -0.2705 C   0  0  0  0  0  0  0  0  0  0  0  0
    0.9055    8.5950   -1.6723 O   0  0  0  0  0  0  0  0  0  0  0  0
    1.9605    9.5644   -1.6865 C   0  0  2  0  0  0  0  0  0  0  0  0
    3.3054    9.0638   -1.2110 C   0  0  0  0  0  0  0  0  0  0  0  0
    4.3785    9.4626   -1.6430 O   0  0  0  0  0  0  0  0  0  0  0  0
    3.2429    8.0700   -0.0730 C   0  0  0  0  0  0  0  0  0  0  0  0
    4.2498    7.7149    0.5199 O   0  0  0  0  0  0  0  0  0  0  0  0
    1.5560   10.7976   -0.9386 C   0  0  1  0  0  0  0  0  0  0  0  0
    1.2447   10.6348    0.4679 O   0  0  0  0  0  0  0  0  0  0  0  0
    2.3051   11.9678   -1.2720 O   0  0  0  0  0  0  0  0  0  0  0  0
    0.9934   11.9887   -1.5743 C   0  0  0  0  0  0  0  0  0  0  0  0
    0.1225   12.7360   -1.1876 O   0  0  0  0  0  0  0  0  0  0  0  0
    2.5077    1.0908    1.7773 C   0  0  0  0  0  0  0  0  0  0  0  0
    1.9615    1.3904    0.7253 O   0  0  0  0  0  0  0  0  0  0  0  0
    3.1517   -0.2715    1.9683 C   0  0  0  0  0  0  0  0  0  0  0  0
    3.0241   -1.1457    1.1255 O   0  0  0  0  0  0  0  0  0  0  0  0
    3.9674   -0.5340    3.2235 C   0  0  0  0  0  0  0  0  0  0  0  0
    4.8704   -1.3505    3.2600 O   0  0  0  0  0  0  0  0  0  0  0  0
  1  2  1  0  0  0  0
  2  3  2  0  0  0  0
  3  4  1  0  0  0  0
  3 50  1  0  0  0  0
  4  5  1  0  0  0  0
  5  6  1  6  0  0  0
  5 46  1  0  0  0  0
  6  7  1  0  0  0  0
  7  8  2  0  0  0  0
  7 12  1  0  0  0  0
  8  9  1  0  0  0  0
  8 25  1  0  0  0  0
  9 10  1  0  0  0  0
 10 11  2  0  0  0  0
 10 21  1  0  0  0  0
 11 12  1  0  0  0  0
 11 13  1  0  0  0  0
 13 14  2  0  0  0  0
 13 19  1  0  0  0  0
 14 15  1  0  0  0  0
 15 16  2  0  0  0  0
 15 17  1  0  0  0  0
 17 18  2  0  0  0  0
 18 19  1  0  0  0  0
 19 20  2  0  0  0  0
 20 21  1  0  0  0  0
 20 22  1  0  0  0  0
 22 23  1  0  0  0  0
 22 24  1  0  0  0  0
 23 24  1  0  0  0  0
 25 26  2  0  0  0  0
 25 30  1  0  0  0  0
 26 27  1  0  0  0  0
 27 28  2  0  0  0  0
 28 29  1  0  0  0  0
 29 30  2  0  0  0  0
 29 34  1  0  0  0  0
 30 31  1  0  0  0  0
 31 32  2  0  0  0  0
 32 33  1  0  0  0  0
 32 39  1  0  0  0  0
 33 34  2  0  0  0  0
 33 35  1  0  0  0  0
 36 35  1  1  0  0  0
 36 37  1  0  0  0  0
 36 41  1  0  0  0  0
 37 38  2  0  0  0  0
 37 39  1  0  0  0  0
 39 40  2  0  0  0  0
 41 42  1  1  0  0  0
 41 43  1  0  0  0  0
 41 44  1  0  0  0  0
 43 44  1  0  0  0  0
 44 45  2  0  0  0  0
 46 47  2  0  0  0  0
 46 48  1  0  0  0  0
 48 49  2  0  0  0  0
 48 50  1  0  0  0  0
 50 51  2  0  0  0  0
M  END
$$$$