
 OpenBabel11212019123D

 55 63  0  0  1  0  0  0  0  0999 V2000
    6.1326   -3.5788    2.4931 O   0  0  0  0  0  0  0  0  0  0  0  0
    5.6394   -2.3139    2.7047 C   0  0  0  0  0  0  0  0  0  0  0  0
    4.3312   -2.0551    2.8190 C   0  0  0  0  0  0  0  0  0  0  0  0
    3.4012   -3.0764    2.7014 O   0  0  0  0  0  0  0  0  0  0  0  0
    2.1873   -2.8455    3.4124 C   0  0  2  0  0  0  0  0  0  0  0  0
    1.3005   -3.9767    3.2462 O   0  0  0  0  0  0  0  0  0  0  0  0
    1.7484   -5.2089    3.7028 C   0  0  0  0  0  0  0  0  0  0  0  0
    1.2887   -6.3517    3.1507 C   0  0  0  0  0  0  0  0  0  0  0  0
    1.7098   -7.6206    3.5695 O   0  0  0  0  0  0  0  0  0  0  0  0
    2.6572   -7.7321    4.6030 C   0  0  0  0  0  0  0  0  0  0  0  0
    3.1438   -6.6388    5.2207 C   0  0  0  0  0  0  0  0  0  0  0  0
    2.7186   -5.2474    4.8581 C   0  0  0  0  0  0  0  0  0  0  0  0
    4.1921   -6.7284    6.2981 C   0  0  3  0  0  0  0  0  0  0  0  0
    3.6600   -6.1673    7.4818 O   0  0  0  0  0  0  0  0  0  0  0  0
    4.5322   -6.0979    8.5286 C   0  0  0  0  0  0  0  0  0  0  0  0
    4.3497   -5.3412    9.4650 O   0  0  0  0  0  0  0  0  0  0  0  0
    5.6276   -6.8893    8.4073 O   0  0  0  0  0  0  0  0  0  0  0  0
    5.5096   -8.1504    7.7608 C   0  0  3  0  0  0  0  0  0  0  0  0
    4.5285   -8.1275    6.6386 C   0  0  0  0  0  0  0  0  0  0  0  0
    3.9922   -9.1891    5.9979 C   0  0  0  0  0  0  0  0  0  0  0  0
    3.0800   -8.9948    4.9663 O   0  3  0  0  0  0  0  0  0  0  0  0
    4.3127  -10.6101    6.2923 C   0  0  0  0  0  0  0  0  0  0  0  0
    3.3153  -11.6261    6.0817 O   0  0  0  0  0  0  0  0  0  0  0  0
    4.4619  -11.5517    5.2161 O   0  0  0  0  0  0  0  0  0  0  0  0
    6.7402   -8.4618    7.1389 O   0  0  0  0  0  0  0  0  0  0  0  0
    0.3285   -6.3419    2.0140 C   0  0  0  0  0  0  0  0  0  0  0  0
    0.8519   -6.2855    0.7254 C   0  0  0  0  0  0  0  0  0  0  0  0
    0.0412   -6.2690   -0.3396 N   0  3  0  0  0  0  0  0  0  0  0  0
    0.5847   -6.2675   -1.5743 F   0  0  0  0  0  0  0  0  0  0  0  0
   -1.2902   -6.2823   -0.2331 N   0  0  0  0  0  0  0  0  0  0  0  0
   -1.8620   -6.3292    0.9786 C   0  0  0  0  0  0  0  0  0  0  0  0
   -1.0825   -6.3663    2.1523 C   0  0  0  0  0  0  0  0  0  0  0  0
   -1.7436   -6.4746    3.3996 C   0  0  0  0  0  0  0  0  0  0  0  0
   -3.1393   -6.6177    3.4815 C   0  0  0  0  0  0  0  0  0  0  0  0
   -3.7602   -6.9959    4.7574 C   0  0  0  0  0  0  0  0  0  0  0  0
   -3.0651   -7.2370    5.7279 O   0  0  0  0  0  0  0  0  0  0  0  0
   -5.2583   -7.1838    4.7510 C   0  0  0  0  0  0  0  0  0  0  0  0
   -5.9116   -6.9992    5.7620 O   0  0  0  0  0  0  0  0  0  0  0  0
   -5.8210   -7.5739    3.4012 C   0  0  1  0  0  0  0  0  0  0  0  0
   -5.2604   -6.7885    2.3099 O   0  0  0  0  0  0  0  0  0  0  0  0
   -3.9139   -6.5623    2.3379 C   0  0  0  0  0  0  0  0  0  0  0  0
   -3.2714   -6.3905    1.1029 C   0  0  0  0  0  0  0  0  0  0  0  0
   -4.0502   -6.4351   -0.0504 N   0  3  0  0  0  0  0  0  0  0  0  0
   -4.6251   -6.4846   -0.9780 N   0  0  0  0  0  0  0  0  0  0  0  0
   -5.7308   -9.0619    3.1347 C   0  0  1  0  0  0  0  0  0  0  0  0
   -6.4033   -9.9167    4.0674 O   0  0  0  0  0  0  0  0  0  0  0  0
   -5.8710   -9.4434    1.7706 O   0  0  0  0  0  0  0  0  0  0  0  0
   -4.6703   -9.6899    2.3357 C   0  0  0  0  0  0  0  0  0  0  0  0
   -3.5894   -9.2607    1.9573 O   0  0  0  0  0  0  0  0  0  0  0  0
    1.5090   -1.6265    2.8232 C   0  0  0  0  0  0  0  0  0  0  0  0
    0.3899   -1.6191    2.3296 O   0  0  0  0  0  0  0  0  0  0  0  0
    2.4132   -0.4149    2.8404 C   0  0  0  0  0  0  0  0  0  0  0  0
    1.9445    0.6980    2.6878 O   0  0  0  0  0  0  0  0  0  0  0  0
    3.9061   -0.6371    3.0271 C   0  0  0  0  0  0  0  0  0  0  0  0
    4.6636    0.2578    3.3509 O   0  0  0  0  0  0  0  0  0  0  0  0
  1  2  1  0  0  0  0
  2  3  2  0  0  0  0
  3  4  1  0  0  0  0
  3 54  1  0  0  0  0
  4  5  1  0  0  0  0
  5  6  1  6  0  0  0
  5 50  1  0  0  0  0
  6  7  1  0  0  0  0
  7  8  2  0  0  0  0
  7 12  1  0  0  0  0
  8  9  1  0  0  0  0
  8 26  1  0  0  0  0
  9 10  1  0  0  0  0
 10 11  2  0  0  0  0
 10 21  1  0  0  0  0
 11 12  1  0  0  0  0
 11 13  1  0  0  0  0
 13 14  1  0  0  0  0
 13 19  1  0  0  0  0
 14 15  1  0  0  0  0
 15 16  2  0  0  0  0
 15 17  1  0  0  0  0
 17 18  1  0  0  0  0
 18 19  1  0  0  0  0
 18 25  1  0  0  0  0
 19 20  2  0  0  0  0
 20 21  1  0  0  0  0
 20 22  1  0  0  0  0
 22 23  1  0  0  0  0
 22 24  1  0  0  0  0
 23 24  1  0  0  0  0
 26 27  2  0  0  0  0
 26 32  1  0  0  0  0
 27 28  1  0  0  0  0
 28 29  1  0  0  0  0
 28 30  2  0  0  0  0
 30 31  1  0  0  0  0
 31 32  2  0  0  0  0
 31 42  1  0  0  0  0
 32 33  1  0  0  0  0
 33 34  2  0  0  0  0
 34 35  1  0  0  0  0
 34 41  1  0  0  0  0
 35 36  2  0  0  0  0
 35 37  1  0  0  0  0
 37 38  2  0  0  0  0
 39 37  1  1  0  0  0
 39 40  1  0  0  0  0
 39 45  1  0  0  0  0
 40 41  1  0  0  0  0
 41 42  2  0  0  0  0
 42 43  1  0  0  0  0
 43 44  3  0  0  0  0
 45 46  1  1  0  0  0
 45 47  1  0  0  0  0
 45 48  1  0  0  0  0
 47 48  1  0  0  0  0
 48 49  2  0  0  0  0
 50 51  2  0  0  0  0
 50 52  1  0  0  0  0
 52 53  2  0  0  0  0
 52 54  1  0  0  0  0
 54 55  2  0  0  0  0
M  CHG  3  21   1  28   1  43   1
M  END
$$$$