
 OpenBabel11272020083D

 54 62  0  0  1  0  0  0  0  0999 V2000
   -1.5469    4.3740   -0.6761 F   0  0  0  0  0  0  0  0  0  0  0  0
   -1.1113    3.2168   -0.1406 C   0  0  0  0  0  0  0  0  0  0  0  0
    0.0008    2.6247   -0.5797 C   0  0  0  0  0  0  0  0  0  0  0  0
    0.7239    3.1465   -1.6367 O   0  0  0  0  0  0  0  0  0  0  0  0
    2.1259    3.1388   -1.4007 C   0  0  2  0  0  0  0  0  0  0  0  0
    2.8385    3.7014   -2.5270 O   0  0  0  0  0  0  0  0  0  0  0  0
    2.6310    5.0110   -2.9257 C   0  0  0  0  0  0  0  0  0  0  0  0
    3.3065    5.5305   -3.9788 C   0  0  0  0  0  0  0  0  0  0  0  0
    3.1250    6.8639   -4.3743 O   0  0  0  0  0  0  0  0  0  0  0  0
    2.3458    7.7353   -3.6191 C   0  0  0  0  0  0  0  0  0  0  0  0
    1.6097    7.2810   -2.5907 C   0  0  0  0  0  0  0  0  0  0  0  0
    1.6469    5.8503   -2.1562 C   0  0  0  0  0  0  0  0  0  0  0  0
    0.7090    8.1790   -1.7934 C   0  0  3  0  0  0  0  0  0  0  0  0
    1.1392    8.1247   -0.4522 O   0  0  0  0  0  0  0  0  0  0  0  0
    0.4877    8.9299    0.4318 C   0  0  0  0  0  0  0  0  0  0  0  0
    0.5228    8.6838    1.6262 O   0  0  0  0  0  0  0  0  0  0  0  0
   -0.1781    9.9948   -0.0859 O   0  0  0  0  0  0  0  0  0  0  0  0
    0.0182   10.4242   -1.3466 C   0  0  0  0  0  0  0  0  0  0  0  0
   -0.5230   11.4161   -1.8086 O   0  0  0  0  0  0  0  0  0  0  0  0
    0.8388    9.5797   -2.2099 C   0  0  0  0  0  0  0  0  0  0  0  0
    1.6175   10.0028   -3.2306 C   0  0  0  0  0  0  0  0  0  0  0  0
    2.3583    9.0729   -3.9558 O   0  3  0  0  0  0  0  0  0  0  0  0
    1.8619   11.4081   -3.6029 C   0  0  0  0  0  0  0  0  0  0  0  0
    2.0461   11.6549   -5.0375 N   0  0  0  0  0  0  0  0  0  0  0  0
    0.9736   12.2671   -4.3361 N   0  0  0  0  0  0  0  0  0  0  0  0
    4.2745    4.7489   -4.8285 C   0  0  0  0  0  0  0  0  0  0  0  0
    4.0622    3.3830   -5.0173 C   0  0  0  0  0  0  0  0  0  0  0  0
    4.8704    2.6431   -5.7771 N   0  3  0  0  0  0  0  0  0  0  0  0
    4.6239    1.3239   -5.8937 F   0  0  0  0  0  0  0  0  0  0  0  0
    5.8854    3.1530   -6.4368 N   0  0  0  0  0  0  0  0  0  0  0  0
    6.1429    4.4611   -6.3562 C   0  0  0  0  0  0  0  0  0  0  0  0
    5.3716    5.3137   -5.5312 C   0  0  0  0  0  0  0  0  0  0  0  0
    5.7349    6.6776   -5.4842 C   0  0  0  0  0  0  0  0  0  0  0  0
    6.7145    7.2065   -6.3239 C   0  0  0  0  0  0  0  0  0  0  0  0
    6.9129    8.6561   -6.3689 C   0  0  0  0  0  0  0  0  0  0  0  0
    6.2227    9.3994   -5.6851 O   0  0  0  0  0  0  0  0  0  0  0  0
    7.9433    9.1477   -7.3568 C   0  0  0  0  0  0  0  0  0  0  0  0
    8.5367   10.1942   -7.1555 O   0  0  0  0  0  0  0  0  0  0  0  0
    8.1359    8.2235   -8.5396 C   0  0  1  0  0  0  0  0  0  0  0  0
    8.2993    6.8507   -8.1224 O   0  0  0  0  0  0  0  0  0  0  0  0
    7.4168    6.3828   -7.1806 C   0  0  0  0  0  0  0  0  0  0  0  0
    7.1955    4.9924   -7.1354 C   0  0  0  0  0  0  0  0  0  0  0  0
    7.8556    4.1778   -8.0871 N   0  0  0  0  0  0  0  0  0  0  0  0
    7.0636    8.4075   -9.5926 C   0  0  1  0  0  0  0  0  0  0  0  0
    6.9436    9.7307  -10.1472 O   0  0  0  0  0  0  0  0  0  0  0  0
    6.9271    7.3297  -10.5396 O   0  0  0  0  0  0  0  0  0  0  0  0
    5.8930    7.5709   -9.7401 C   0  0  0  0  0  0  0  0  0  0  0  0
    5.2449    6.8959   -8.9543 O   0  0  0  0  0  0  0  0  0  0  0  0
    2.6643    1.7252   -1.2422 C   0  0  0  0  0  0  0  0  0  0  0  0
    3.7542    1.3540   -1.6590 O   0  0  0  0  0  0  0  0  0  0  0  0
    1.7111    0.7951   -0.5238 C   0  0  0  0  0  0  0  0  0  0  0  0
    1.9414   -0.4007   -0.4853 O   0  0  0  0  0  0  0  0  0  0  0  0
    0.4430    1.3683    0.0786 C   0  0  0  0  0  0  0  0  0  0  0  0
   -0.1112    0.8651    1.0363 O   0  0  0  0  0  0  0  0  0  0  0  0
  1  2  1  0  0  0  0
  2  3  2  0  0  0  0
  3  4  1  0  0  0  0
  3 53  1  0  0  0  0
  4  5  1  0  0  0  0
  5  6  1  6  0  0  0
  5 49  1  0  0  0  0
  6  7  1  0  0  0  0
  7  8  2  0  0  0  0
  7 12  1  0  0  0  0
  8  9  1  0  0  0  0
  8 26  1  0  0  0  0
  9 10  1  0  0  0  0
 10 11  2  0  0  0  0
 10 22  1  0  0  0  0
 11 12  1  0  0  0  0
 11 13  1  0  0  0  0
 13 14  1  0  0  0  0
 13 20  1  0  0  0  0
 14 15  1  0  0  0  0
 15 16  2  0  0  0  0
 15 17  1  0  0  0  0
 17 18  1  0  0  0  0
 18 19  2  0  0  0  0
 18 20  1  0  0  0  0
 20 21  2  0  0  0  0
 21 22  1  0  0  0  0
 21 23  1  0  0  0  0
 23 24  1  0  0  0  0
 23 25  1  0  0  0  0
 24 25  1  0  0  0  0
 26 27  2  0  0  0  0
 26 32  1  0  0  0  0
 27 28  1  0  0  0  0
 28 29  1  0  0  0  0
 28 30  2  0  0  0  0
 30 31  1  0  0  0  0
 31 32  2  0  0  0  0
 31 42  1  0  0  0  0
 32 33  1  0  0  0  0
 33 34  2  0  0  0  0
 34 35  1  0  0  0  0
 34 41  1  0  0  0  0
 35 36  2  0  0  0  0
 35 37  1  0  0  0  0
 37 38  2  0  0  0  0
 39 37  1  1  0  0  0
 39 40  1  0  0  0  0
 39 44  1  0  0  0  0
 40 41  1  0  0  0  0
 41 42  2  0  0  0  0
 42 43  1  0  0  0  0
 44 45  1  6  0  0  0
 44 46  1  0  0  0  0
 44 47  1  0  0  0  0
 46 47  1  0  0  0  0
 47 48  2  0  0  0  0
 49 50  2  0  0  0  0
 49 51  1  0  0  0  0
 51 52  2  0  0  0  0
 51 53  1  0  0  0  0
 53 54  2  0  0  0  0
M  CHG  2  22   1  28   1
M  END
$$$$