
 OpenBabel11212014473D

 53 61  0  0  1  0  0  0  0  0999 V2000
    4.8440   -0.8241    8.0645 O   0  0  0  0  0  0  0  0  0  0  0  0
    4.3177    0.3562    7.5993 C   0  0  0  0  0  0  0  0  0  0  0  0
    3.8403    0.5012    6.3569 C   0  0  0  0  0  0  0  0  0  0  0  0
    3.9001   -0.5246    5.4365 O   0  0  0  0  0  0  0  0  0  0  0  0
    2.6919   -0.6718    4.6807 C   0  0  2  0  0  0  0  0  0  0  0  0
    2.6758   -1.9013    3.9426 O   0  0  0  0  0  0  0  0  0  0  0  0
    2.6520   -3.0749    4.6923 C   0  0  0  0  0  0  0  0  0  0  0  0
    2.0971   -4.2047    4.2087 C   0  0  0  0  0  0  0  0  0  0  0  0
    2.0837   -5.4044    4.9150 O   0  0  0  0  0  0  0  0  0  0  0  0
    2.6649   -5.4641    6.1786 C   0  0  0  0  0  0  0  0  0  0  0  0
    3.2247   -4.3968    6.7680 C   0  0  0  0  0  0  0  0  0  0  0  0
    3.2875   -3.0816    6.0602 C   0  0  0  0  0  0  0  0  0  0  0  0
    3.8479   -4.4034    8.1325 C   0  0  3  0  0  0  0  0  0  0  0  0
    3.0621   -3.5550    8.9612 O   0  0  0  0  0  0  0  0  0  0  0  0
    3.3387   -3.4768   10.2863 C   0  0  0  0  0  0  0  0  0  0  0  0
    2.8760   -2.5824   10.9810 O   0  0  0  0  0  0  0  0  0  0  0  0
    4.1342   -4.4400   10.8059 O   0  0  0  0  0  0  0  0  0  0  0  0
    4.5734   -5.5882   10.0838 C   0  0  3  0  0  0  0  0  0  0  0  0
    3.8827   -5.7363    8.7762 C   0  0  0  0  0  0  0  0  0  0  0  0
    3.3659   -6.8699    8.2486 C   0  0  0  0  0  0  0  0  0  0  0  0
    2.7048   -6.6983    6.9491 N   0  3  0  0  0  0  0  0  0  0  0  0
    2.1476   -7.6676    6.4675 O   0  0  0  0  0  0  0  0  0  0  0  0
    3.4047   -8.2364    8.8167 C   0  0  0  0  0  0  0  0  0  0  0  0
    4.4805   -8.6838    9.6617 O   0  0  0  0  0  0  0  0  0  0  0  0
    3.1597   -8.4952   10.2092 O   0  0  0  0  0  0  0  0  0  0  0  0
    5.9582   -5.4437    9.8138 O   0  0  0  0  0  0  0  0  0  0  0  0
    1.3894   -4.2719    2.9183 C   0  0  0  0  0  0  0  0  0  0  0  0
    0.0388   -3.9590    2.9035 C   0  0  0  0  0  0  0  0  0  0  0  0
   -0.7169   -4.0290    1.7936 N   0  0  0  0  0  0  0  0  0  0  0  0
   -0.1454   -4.4354    0.6234 N   0  0  0  0  0  0  0  0  0  0  0  0
    1.1568   -4.7480    0.5616 C   0  0  0  0  0  0  0  0  0  0  0  0
    1.9853   -4.6682    1.7010 C   0  0  0  0  0  0  0  0  0  0  0  0
    3.3537   -4.9914    1.5627 C   0  0  0  0  0  0  0  0  0  0  0  0
    3.8743   -5.3948    0.3276 C   0  0  0  0  0  0  0  0  0  0  0  0
    3.0508   -5.4853   -0.7849 C   0  0  0  0  0  0  0  0  0  0  0  0
    1.6987   -5.1648   -0.6525 C   0  0  0  0  0  0  0  0  0  0  0  0
    3.4593   -5.8772   -2.0292 O   0  0  0  0  0  0  0  0  0  0  0  0
    4.8656   -5.8281   -2.2908 C   0  0  2  0  0  0  0  0  0  0  0  0
    5.7688   -6.2099   -1.1410 C   0  0  0  0  0  0  0  0  0  0  0  0
    6.8306   -6.8051   -1.2640 O   0  0  0  0  0  0  0  0  0  0  0  0
    5.2978   -5.7265    0.2081 C   0  0  0  0  0  0  0  0  0  0  0  0
    6.0695   -5.6242    1.1488 O   0  0  0  0  0  0  0  0  0  0  0  0
    5.2483   -4.4847   -2.8238 C   0  0  1  0  0  0  0  0  0  0  0  0
    4.9874   -3.3520   -1.9608 O   0  0  0  0  0  0  0  0  0  0  0  0
    6.5036   -4.4612   -3.5101 O   0  0  0  0  0  0  0  0  0  0  0  0
    5.4103   -4.1773   -4.2438 C   0  0  0  0  0  0  0  0  0  0  0  0
    5.1371   -3.1751   -4.8626 O   0  0  0  0  0  0  0  0  0  0  0  0
    2.5925    0.5303    3.7540 C   0  0  0  0  0  0  0  0  0  0  0  0
    2.2674    0.5092    2.5766 O   0  0  0  0  0  0  0  0  0  0  0  0
    2.8873    1.8367    4.4672 C   0  0  0  0  0  0  0  0  0  0  0  0
    2.8221    2.9014    3.8742 O   0  0  0  0  0  0  0  0  0  0  0  0
    3.2689    1.8059    5.9374 C   0  0  0  0  0  0  0  0  0  0  0  0
    3.0711    2.7453    6.6869 O   0  0  0  0  0  0  0  0  0  0  0  0
  1  2  1  0  0  0  0
  2  3  2  0  0  0  0
  3  4  1  0  0  0  0
  3 52  1  0  0  0  0
  4  5  1  0  0  0  0
  5  6  1  6  0  0  0
  5 48  1  0  0  0  0
  6  7  1  0  0  0  0
  7  8  2  0  0  0  0
  7 12  1  0  0  0  0
  8  9  1  0  0  0  0
  8 27  1  0  0  0  0
  9 10  1  0  0  0  0
 10 11  2  0  0  0  0
 10 21  1  0  0  0  0
 11 12  1  0  0  0  0
 11 13  1  0  0  0  0
 13 14  1  0  0  0  0
 13 19  1  0  0  0  0
 14 15  1  0  0  0  0
 15 16  2  0  0  0  0
 15 17  1  0  0  0  0
 17 18  1  0  0  0  0
 18 19  1  0  0  0  0
 18 26  1  0  0  0  0
 19 20  2  0  0  0  0
 20 21  1  0  0  0  0
 20 23  1  0  0  0  0
 21 22  2  0  0  0  0
 23 24  1  0  0  0  0
 23 25  1  0  0  0  0
 24 25  1  0  0  0  0
 27 28  2  0  0  0  0
 27 32  1  0  0  0  0
 28 29  1  0  0  0  0
 29 30  2  0  0  0  0
 30 31  1  0  0  0  0
 31 32  2  0  0  0  0
 31 36  1  0  0  0  0
 32 33  1  0  0  0  0
 33 34  2  0  0  0  0
 34 35  1  0  0  0  0
 34 41  1  0  0  0  0
 35 36  2  0  0  0  0
 35 37  1  0  0  0  0
 38 37  1  1  0  0  0
 38 39  1  0  0  0  0
 38 43  1  0  0  0  0
 39 40  2  0  0  0  0
 39 41  1  0  0  0  0
 41 42  2  0  0  0  0
 43 44  1  1  0  0  0
 43 45  1  0  0  0  0
 43 46  1  0  0  0  0
 45 46  1  0  0  0  0
 46 47  2  0  0  0  0
 48 49  2  0  0  0  0
 48 50  1  0  0  0  0
 50 51  2  0  0  0  0
 50 52  1  0  0  0  0
 52 53  2  0  0  0  0
M  CHG  1  21   1
M  END
$$$$