
 OpenBabel11272001313D

 53 61  0  0  1  0  0  0  0  0999 V2000
    4.8121    1.5489   -8.6291 F   0  0  0  0  0  0  0  0  0  0  0  0
    4.1031    0.4505   -8.3083 C   0  0  0  0  0  0  0  0  0  0  0  0
    3.4591    0.3450   -7.1441 C   0  0  0  0  0  0  0  0  0  0  0  0
    3.5265    1.3517   -6.2003 O   0  0  0  0  0  0  0  0  0  0  0  0
    2.5915    1.2443   -5.1226 C   0  0  2  0  0  0  0  0  0  0  0  0
    2.7483    2.3010   -4.1704 O   0  0  0  0  0  0  0  0  0  0  0  0
    2.4641    3.6025   -4.5792 C   0  0  0  0  0  0  0  0  0  0  0  0
    2.6315    4.6465   -3.7366 C   0  0  0  0  0  0  0  0  0  0  0  0
    2.4360    5.9786   -4.1144 O   0  0  0  0  0  0  0  0  0  0  0  0
    2.0131    6.2684   -5.4057 C   0  0  0  0  0  0  0  0  0  0  0  0
    1.7525    5.2920   -6.2852 C   0  0  0  0  0  0  0  0  0  0  0  0
    1.9569    3.8528   -5.9805 C   0  0  0  0  0  0  0  0  0  0  0  0
    1.2709    5.6656   -7.6413 C   0  0  0  0  0  0  0  0  0  0  0  0
    0.9324    4.7505   -8.4957 N   0  0  0  0  0  0  0  0  0  0  0  0
    0.5030    5.1814   -9.7163 C   0  0  0  0  0  0  0  0  0  0  0  0
    0.1355    4.2457  -10.5113 N   0  0  0  0  0  0  0  0  0  0  0  0
    0.4192    6.4646  -10.1690 N   0  0  0  0  0  0  0  0  0  0  0  0
    0.7572    7.3942   -9.3397 C   0  0  0  0  0  0  0  0  0  0  0  0
    1.2001    7.1131   -7.9669 C   0  0  0  0  0  0  0  0  0  0  0  0
    1.5231    8.0237   -7.0254 C   0  0  0  0  0  0  0  0  0  0  0  0
    1.8813    7.5914   -5.7525 N   0  0  0  0  0  0  0  0  0  0  0  0
    1.5234    9.4905   -7.2361 C   0  0  0  0  0  0  0  0  0  0  0  0
    2.4364   10.3547   -6.5350 O   0  0  0  0  0  0  0  0  0  0  0  0
    2.5779   10.1507   -7.9537 O   0  0  0  0  0  0  0  0  0  0  0  0
    3.0169    4.4966   -2.3184 C   0  0  0  0  0  0  0  0  0  0  0  0
    1.9620    4.4426   -1.4654 N   0  0  0  0  0  0  0  0  0  0  0  0
    2.2356    4.3904   -0.1493 C   0  0  0  0  0  0  0  0  0  0  0  0
    1.2007    4.2852    0.6961 F   0  0  0  0  0  0  0  0  0  0  0  0
    3.5079    4.4465    0.3801 C   0  0  0  0  0  0  0  0  0  0  0  0
    4.5949    4.5138   -0.4948 C   0  0  0  0  0  0  0  0  0  0  0  0
    4.3653    4.5017   -1.8889 C   0  0  0  0  0  0  0  0  0  0  0  0
    5.4905    4.5038   -2.7456 C   0  0  0  0  0  0  0  0  0  0  0  0
    6.7946    4.5531   -2.2299 C   0  0  0  0  0  0  0  0  0  0  0  0
    7.9385    4.5657   -3.1479 C   0  0  0  0  0  0  0  0  0  0  0  0
    7.8061    4.4223   -4.3524 O   0  0  0  0  0  0  0  0  0  0  0  0
    9.2931    4.8000   -2.5265 C   0  0  0  0  0  0  0  0  0  0  0  0
   10.2167    5.2632   -3.1807 O   0  0  0  0  0  0  0  0  0  0  0  0
    9.3845    4.4056   -1.0719 C   0  0  1  0  0  0  0  0  0  0  0  0
    8.2445    4.7196   -0.2716 O   0  0  0  0  0  0  0  0  0  0  0  0
    7.0159    4.6166   -0.8614 C   0  0  0  0  0  0  0  0  0  0  0  0
    5.9116    4.5938   -0.0088 C   0  0  0  0  0  0  0  0  0  0  0  0
    6.1190    4.6501    1.3181 F   0  0  0  0  0  0  0  0  0  0  0  0
    9.7180    2.9575   -0.9307 C   0  0  1  0  0  0  0  0  0  0  0  0
    8.7826    2.0212   -1.5172 O   0  0  0  0  0  0  0  0  0  0  0  0
   11.1017    2.6413   -1.0834 O   0  0  0  0  0  0  0  0  0  0  0  0
   10.5648    2.4196    0.1368 C   0  0  0  0  0  0  0  0  0  0  0  0
   10.4744    1.3928    0.7605 O   0  0  0  0  0  0  0  0  0  0  0  0
    2.8284   -0.1280   -4.4912 C   0  0  0  0  0  0  0  0  0  0  0  0
    3.1968   -0.2966   -3.3299 O   0  0  0  0  0  0  0  0  0  0  0  0
    2.4829   -1.2699   -5.4194 C   0  0  3  0  0  0  0  0  0  0  0  0
    2.7473   -0.9389   -6.8703 C   0  0  0  0  0  0  0  0  0  0  0  0
    2.4034   -1.6806   -7.7890 O   0  0  0  0  0  0  0  0  0  0  0  0
    3.1098   -2.4297   -5.0629 F   0  0  0  0  0  0  0  0  0  0  0  0
  1  2  1  0  0  0  0
  2  3  2  0  0  0  0
  3  4  1  0  0  0  0
  3 51  1  0  0  0  0
  4  5  1  0  0  0  0
  5  6  1  1  0  0  0
  5 48  1  0  0  0  0
  6  7  1  0  0  0  0
  7  8  2  0  0  0  0
  7 12  1  0  0  0  0
  8  9  1  0  0  0  0
  8 25  1  0  0  0  0
  9 10  1  0  0  0  0
 10 11  2  0  0  0  0
 10 21  1  0  0  0  0
 11 12  1  0  0  0  0
 11 13  1  0  0  0  0
 13 14  2  0  0  0  0
 13 19  1  0  0  0  0
 14 15  1  0  0  0  0
 15 16  2  0  0  0  0
 15 17  1  0  0  0  0
 17 18  2  0  0  0  0
 18 19  1  0  0  0  0
 19 20  2  0  0  0  0
 20 21  1  0  0  0  0
 20 22  1  0  0  0  0
 22 23  1  0  0  0  0
 22 24  1  0  0  0  0
 23 24  1  0  0  0  0
 25 26  2  0  0  0  0
 25 31  1  0  0  0  0
 26 27  1  0  0  0  0
 27 28  1  0  0  0  0
 27 29  2  0  0  0  0
 29 30  1  0  0  0  0
 30 31  2  0  0  0  0
 30 41  1  0  0  0  0
 31 32  1  0  0  0  0
 32 33  2  0  0  0  0
 33 34  1  0  0  0  0
 33 40  1  0  0  0  0
 34 35  2  0  0  0  0
 34 36  1  0  0  0  0
 36 37  2  0  0  0  0
 38 36  1  6  0  0  0
 38 39  1  0  0  0  0
 38 43  1  0  0  0  0
 39 40  1  0  0  0  0
 40 41  2  0  0  0  0
 41 42  1  0  0  0  0
 43 44  1  6  0  0  0
 43 45  1  0  0  0  0
 43 46  1  0  0  0  0
 45 46  1  0  0  0  0
 46 47  2  0  0  0  0
 48 49  2  0  0  0  0
 48 50  1  0  0  0  0
 50 51  1  0  0  0  0
 50 53  1  0  0  0  0
 51 52  2  0  0  0  0
M  END
$$$$