
 OpenBabel11232002483D

 54 62  0  0  1  0  0  0  0  0999 V2000
   -0.1171   -3.3415   -3.6038 O   0  0  0  0  0  0  0  0  0  0  0  0
    0.3712   -2.1583   -3.1116 C   0  0  0  0  0  0  0  0  0  0  0  0
    1.0482   -2.0865   -1.9599 C   0  0  0  0  0  0  0  0  0  0  0  0
    1.2568   -3.2258   -1.1984 O   0  0  0  0  0  0  0  0  0  0  0  0
    2.4824   -3.2172   -0.4726 C   0  0  2  0  0  0  0  0  0  0  0  0
    2.6752   -4.4498    0.2398 O   0  0  0  0  0  0  0  0  0  0  0  0
    2.7398   -5.6033   -0.5295 C   0  0  0  0  0  0  0  0  0  0  0  0
    2.3091   -6.7771   -0.0277 C   0  0  0  0  0  0  0  0  0  0  0  0
    2.3955   -7.9817   -0.7042 O   0  0  0  0  0  0  0  0  0  0  0  0
    3.0541   -8.0149   -1.9236 C   0  0  0  0  0  0  0  0  0  0  0  0
    3.5607   -6.9094   -2.4986 C   0  0  0  0  0  0  0  0  0  0  0  0
    3.3946   -5.5519   -1.8894 C   0  0  0  0  0  0  0  0  0  0  0  0
    4.3255   -7.0026   -3.8004 C   0  0  3  0  0  0  0  0  0  0  0  0
    5.6256   -6.4699   -3.5508 O   0  0  0  0  0  0  0  0  0  0  0  0
    6.6705   -6.7156   -4.3798 C   0  0  0  0  0  0  0  0  0  0  0  0
    7.7393   -6.1401   -4.2257 O   0  0  0  0  0  0  0  0  0  0  0  0
    6.4935   -7.6303   -5.3616 O   0  0  0  0  0  0  0  0  0  0  0  0
    5.3106   -8.3972   -5.5304 C   0  0  3  0  0  0  0  0  0  0  0  0
    4.4731   -8.3899   -4.3147 C   0  0  0  0  0  0  0  0  0  0  0  0
    3.9148   -9.4543   -3.6954 C   0  0  0  0  0  0  0  0  0  0  0  0
    3.1927   -9.2361   -2.5276 N   0  0  0  0  0  0  0  0  0  0  0  0
    4.0125  -10.8449   -4.1702 C   0  0  3  0  0  0  0  0  0  0  0  0
    4.1045  -11.8945   -3.2130 N   0  0  0  0  0  0  0  0  0  0  0  0
    5.1571  -11.6032   -3.8095 N   0  0  0  0  0  0  0  0  0  0  0  0
    4.5439   -7.8435   -6.5845 O   0  0  0  0  0  0  0  0  0  0  0  0
    1.7519   -6.8823    1.3254 C   0  0  0  0  0  0  0  0  0  0  0  0
    2.6427   -7.0648    2.3754 C   0  0  0  0  0  0  0  0  0  0  0  0
    2.2029   -7.1041    3.6352 N   0  3  0  0  0  0  0  0  0  0  0  0
    3.0893   -7.2878    4.6320 F   0  0  0  0  0  0  0  0  0  0  0  0
    0.9269   -6.9609    3.9478 N   0  0  0  0  0  0  0  0  0  0  0  0
    0.0241   -6.7710    2.9765 C   0  0  0  0  0  0  0  0  0  0  0  0
    0.3852   -6.7409    1.6182 C   0  0  0  0  0  0  0  0  0  0  0  0
   -0.6222   -6.5665    0.6369 C   0  0  0  0  0  0  0  0  0  0  0  0
   -1.9577   -6.3836    1.0092 C   0  0  0  0  0  0  0  0  0  0  0  0
   -3.0086   -6.2270   -0.0040 C   0  0  0  0  0  0  0  0  0  0  0  0
   -2.7874   -6.4534   -1.1813 O   0  0  0  0  0  0  0  0  0  0  0  0
   -4.3573   -5.7258    0.4745 C   0  0  0  0  0  0  0  0  0  0  0  0
   -5.2700   -5.5188   -0.3113 O   0  0  0  0  0  0  0  0  0  0  0  0
   -4.3935   -5.3172    1.9293 C   0  0  1  0  0  0  0  0  0  0  0  0
   -3.5869   -6.1553    2.7763 O   0  0  0  0  0  0  0  0  0  0  0  0
   -2.3068   -6.3561    2.3467 C   0  0  0  0  0  0  0  0  0  0  0  0
   -1.3180   -6.5818    3.3070 C   0  0  0  0  0  0  0  0  0  0  0  0
   -1.6663   -6.5969    4.6040 F   0  0  0  0  0  0  0  0  0  0  0  0
   -4.0553   -3.8655    2.1305 C   0  0  1  0  0  0  0  0  0  0  0  0
   -3.8617   -3.4439    3.5019 O   0  0  0  0  0  0  0  0  0  0  0  0
   -3.1279   -3.3262    1.1901 O   0  0  0  0  0  0  0  0  0  0  0  0
   -4.3721   -2.7966    1.1821 C   0  0  0  0  0  0  0  0  0  0  0  0
   -4.7066   -1.6480    1.3909 O   0  0  0  0  0  0  0  0  0  0  0  0
    2.4175   -2.0923    0.5390 C   0  0  0  0  0  0  0  0  0  0  0  0
    2.5266   -2.2084    1.7508 O   0  0  0  0  0  0  0  0  0  0  0  0
    2.1755   -0.7617   -0.1284 C   0  0  0  0  0  0  0  0  0  0  0  0
    2.5268    0.2685    0.4200 O   0  0  0  0  0  0  0  0  0  0  0  0
    1.5387   -0.7497   -1.5077 C   0  0  0  0  0  0  0  0  0  0  0  0
    1.4798    0.2631   -2.1824 O   0  0  0  0  0  0  0  0  0  0  0  0
  1  2  1  0  0  0  0
  2  3  2  0  0  0  0
  3  4  1  0  0  0  0
  3 53  1  0  0  0  0
  4  5  1  0  0  0  0
  5  6  1  1  0  0  0
  5 49  1  0  0  0  0
  6  7  1  0  0  0  0
  7  8  2  0  0  0  0
  7 12  1  0  0  0  0
  8  9  1  0  0  0  0
  8 26  1  0  0  0  0
  9 10  1  0  0  0  0
 10 11  2  0  0  0  0
 10 21  1  0  0  0  0
 11 12  1  0  0  0  0
 11 13  1  0  0  0  0
 13 14  1  0  0  0  0
 13 19  1  0  0  0  0
 14 15  1  0  0  0  0
 15 16  2  0  0  0  0
 15 17  1  0  0  0  0
 17 18  1  0  0  0  0
 18 19  1  0  0  0  0
 18 25  1  0  0  0  0
 19 20  2  0  0  0  0
 20 21  1  0  0  0  0
 20 22  1  0  0  0  0
 22 23  1  0  0  0  0
 22 24  1  0  0  0  0
 23 24  2  0  0  0  0
 26 27  2  0  0  0  0
 26 32  1  0  0  0  0
 27 28  1  0  0  0  0
 28 29  1  0  0  0  0
 28 30  2  0  0  0  0
 30 31  1  0  0  0  0
 31 32  2  0  0  0  0
 31 42  1  0  0  0  0
 32 33  1  0  0  0  0
 33 34  2  0  0  0  0
 34 35  1  0  0  0  0
 34 41  1  0  0  0  0
 35 36  2  0  0  0  0
 35 37  1  0  0  0  0
 37 38  2  0  0  0  0
 39 37  1  6  0  0  0
 39 40  1  0  0  0  0
 39 44  1  0  0  0  0
 40 41  1  0  0  0  0
 41 42  2  0  0  0  0
 42 43  1  0  0  0  0
 44 45  1  1  0  0  0
 44 46  1  0  0  0  0
 44 47  1  0  0  0  0
 46 47  1  0  0  0  0
 47 48  2  0  0  0  0
 49 50  2  0  0  0  0
 49 51  1  0  0  0  0
 51 52  2  0  0  0  0
 51 53  1  0  0  0  0
 53 54  2  0  0  0  0
M  CHG  1  28   1
M  END
$$$$