
 OpenBabel11092001373D

 52 60  0  0  1  0  0  0  0  0999 V2000
   -1.5946   -1.4970    5.9363 O   0  0  0  0  0  0  0  0  0  0  0  0
   -1.7520   -1.4273    4.5768 C   0  0  0  0  0  0  0  0  0  0  0  0
   -1.0743   -0.5613    3.8147 C   0  0  0  0  0  0  0  0  0  0  0  0
   -0.2196    0.3656    4.3730 O   0  0  0  0  0  0  0  0  0  0  0  0
    1.0202    0.5158    3.6948 C   0  0  2  0  0  0  0  0  0  0  0  0
    1.8203    1.5261    4.3176 O   0  0  0  0  0  0  0  0  0  0  0  0
    2.2697    1.3570    5.6192 C   0  0  0  0  0  0  0  0  0  0  0  0
    3.0434    2.3079    6.1858 C   0  0  0  0  0  0  0  0  0  0  0  0
    3.5507    2.2237    7.4752 O   0  0  0  0  0  0  0  0  0  0  0  0
    3.3952    1.0416    8.1791 C   0  0  0  0  0  0  0  0  0  0  0  0
    2.6489    0.0322    7.7024 C   0  0  0  0  0  0  0  0  0  0  0  0
    1.9164    0.1123    6.4021 C   0  0  0  0  0  0  0  0  0  0  0  0
    2.6007   -1.2286    8.4946 C   0  0  0  0  0  0  0  0  0  0  0  0
    1.9052   -2.2406    8.0923 N   0  0  0  0  0  0  0  0  0  0  0  0
    1.8989   -3.4021    8.8380 C   0  0  0  0  0  0  0  0  0  0  0  0
    1.2103   -4.3330    8.4405 O   0  0  0  0  0  0  0  0  0  0  0  0
    2.6252   -3.5717    9.9934 N   0  0  0  0  0  0  0  0  0  0  0  0
    3.3247   -2.5788   10.4072 C   0  0  0  0  0  0  0  0  0  0  0  0
    3.3967   -1.2846    9.7369 C   0  0  0  0  0  0  0  0  0  0  0  0
    4.0989   -0.2084   10.1423 C   0  0  0  0  0  0  0  0  0  0  0  0
    4.0571    0.9464    9.3758 N   0  0  0  0  0  0  0  0  0  0  0  0
    4.9442   -0.1546   11.3587 C   0  0  0  0  0  0  0  0  0  0  0  0
    6.3300   -0.5294   11.3245 O   0  0  0  0  0  0  0  0  0  0  0  0
    5.9623    0.8474   11.5338 O   0  0  0  0  0  0  0  0  0  0  0  0
    4.0257   -2.7509   11.5339 F   0  0  0  0  0  0  0  0  0  0  0  0
    3.4427    3.5311    5.4716 C   0  0  0  0  0  0  0  0  0  0  0  0
    4.6263    3.4342    4.8285 N   0  0  0  0  0  0  0  0  0  0  0  0
    4.9989    4.5103    4.1326 C   0  0  0  0  0  0  0  0  0  0  0  0
    4.3174    5.6598    4.0314 N   0  0  0  0  0  0  0  0  0  0  0  0
    3.1482    5.7336    4.6733 C   0  0  0  0  0  0  0  0  0  0  0  0
    2.6383    4.6806    5.4453 C   0  0  0  0  0  0  0  0  0  0  0  0
    1.3969    4.8376    6.1115 C   0  0  0  0  0  0  0  0  0  0  0  0
    0.6580    6.0109    5.9529 C   0  0  0  0  0  0  0  0  0  0  0  0
    1.1407    7.0309    5.1470 C   0  0  0  0  0  0  0  0  0  0  0  0
    2.3962    6.8969    4.5505 C   0  0  0  0  0  0  0  0  0  0  0  0
    0.4696    8.1929    4.8921 O   0  0  0  0  0  0  0  0  0  0  0  0
   -0.9577    8.1358    5.0502 C   0  0  2  0  0  0  0  0  0  0  0  0
   -1.4139    7.4265    6.3059 C   0  0  0  0  0  0  0  0  0  0  0  0
   -2.3371    7.8023    7.0138 O   0  0  0  0  0  0  0  0  0  0  0  0
   -0.6269    6.1792    6.6414 C   0  0  0  0  0  0  0  0  0  0  0  0
   -1.0312    5.3619    7.4520 O   0  0  0  0  0  0  0  0  0  0  0  0
   -1.6009    7.6677    3.7718 C   0  0  1  0  0  0  0  0  0  0  0  0
   -1.3641    8.4972    2.6136 O   0  0  0  0  0  0  0  0  0  0  0  0
   -1.5081    6.2678    3.4981 O   0  0  0  0  0  0  0  0  0  0  0  0
   -2.7425    6.7623    3.7182 C   0  0  0  0  0  0  0  0  0  0  0  0
   -3.5668    6.4182    4.5289 O   0  0  0  0  0  0  0  0  0  0  0  0
    0.8002    0.9492    2.2527 C   0  0  0  0  0  0  0  0  0  0  0  0
    1.3818    1.8479    1.6612 O   0  0  0  0  0  0  0  0  0  0  0  0
   -0.2285    0.1095    1.5446 C   0  0  0  0  0  0  0  0  0  0  0  0
   -0.1569   -0.0486    0.3351 O   0  0  0  0  0  0  0  0  0  0  0  0
   -1.2975   -0.5984    2.3460 C   0  0  0  0  0  0  0  0  0  0  0  0
   -2.2330   -1.1679    1.8091 O   0  0  0  0  0  0  0  0  0  0  0  0
  1  2  1  0  0  0  0
  2  3  2  0  0  0  0
  3  4  1  0  0  0  0
  3 51  1  0  0  0  0
  4  5  1  0  0  0  0
  5  6  1  1  0  0  0
  5 47  1  0  0  0  0
  6  7  1  0  0  0  0
  7  8  2  0  0  0  0
  7 12  1  0  0  0  0
  8  9  1  0  0  0  0
  8 26  1  0  0  0  0
  9 10  1  0  0  0  0
 10 11  2  0  0  0  0
 10 21  1  0  0  0  0
 11 12  1  0  0  0  0
 11 13  1  0  0  0  0
 13 14  2  0  0  0  0
 13 19  1  0  0  0  0
 14 15  1  0  0  0  0
 15 16  2  0  0  0  0
 15 17  1  0  0  0  0
 17 18  2  0  0  0  0
 18 19  1  0  0  0  0
 18 25  1  0  0  0  0
 19 20  2  0  0  0  0
 20 21  1  0  0  0  0
 20 22  1  0  0  0  0
 22 23  1  0  0  0  0
 22 24  1  0  0  0  0
 23 24  1  0  0  0  0
 26 27  2  0  0  0  0
 26 31  1  0  0  0  0
 27 28  1  0  0  0  0
 28 29  2  0  0  0  0
 29 30  1  0  0  0  0
 30 31  2  0  0  0  0
 30 35  1  0  0  0  0
 31 32  1  0  0  0  0
 32 33  2  0  0  0  0
 33 34  1  0  0  0  0
 33 40  1  0  0  0  0
 34 35  2  0  0  0  0
 34 36  1  0  0  0  0
 37 36  1  6  0  0  0
 37 38  1  0  0  0  0
 37 42  1  0  0  0  0
 38 39  2  0  0  0  0
 38 40  1  0  0  0  0
 40 41  2  0  0  0  0
 42 43  1  6  0  0  0
 42 44  1  0  0  0  0
 42 45  1  0  0  0  0
 44 45  1  0  0  0  0
 45 46  2  0  0  0  0
 47 48  2  0  0  0  0
 47 49  1  0  0  0  0
 49 50  2  0  0  0  0
 49 51  1  0  0  0  0
 51 52  2  0  0  0  0
M  END
$$$$