
 OpenBabel11272020123D

 54 62  0  0  1  0  0  0  0  0999 V2000
   -2.5752    0.3456   -4.9628 O   0  0  0  0  0  0  0  0  0  0  0  0
   -2.2844    0.5073   -3.6317 C   0  0  0  0  0  0  0  0  0  0  0  0
   -1.2171   -0.0540   -3.0502 C   0  0  0  0  0  0  0  0  0  0  0  0
   -0.3822   -0.8803   -3.7833 O   0  0  0  0  0  0  0  0  0  0  0  0
    0.9578   -1.0170   -3.3195 C   0  0  2  0  0  0  0  0  0  0  0  0
    1.6617   -1.9981   -4.0935 O   0  0  0  0  0  0  0  0  0  0  0  0
    1.7996   -1.7641   -5.4557 C   0  0  0  0  0  0  0  0  0  0  0  0
    1.8748   -2.7889   -6.3304 C   0  0  0  0  0  0  0  0  0  0  0  0
    2.0696   -2.6187   -7.6976 O   0  0  0  0  0  0  0  0  0  0  0  0
    2.3293   -1.3470   -8.1952 C   0  0  0  0  0  0  0  0  0  0  0  0
    2.3414   -0.2632   -7.3924 C   0  0  0  0  0  0  0  0  0  0  0  0
    2.0054   -0.3520   -5.9286 C   0  0  0  0  0  0  0  0  0  0  0  0
    2.6762    1.1071   -7.9125 C   0  0  3  0  0  0  0  0  0  0  0  0
    3.8578    1.5526   -7.2807 O   0  0  0  0  0  0  0  0  0  0  0  0
    4.3681    2.7452   -7.6958 C   0  0  0  0  0  0  0  0  0  0  0  0
    5.1597    3.3647   -6.9973 O   0  0  0  0  0  0  0  0  0  0  0  0
    3.9600    3.2054   -8.9066 O   0  0  0  0  0  0  0  0  0  0  0  0
    3.3727    2.4047   -9.8109 C   0  0  0  0  0  0  0  0  0  0  0  0
    3.1339    2.7539  -10.9573 O   0  0  0  0  0  0  0  0  0  0  0  0
    2.9677    1.0811   -9.3518 C   0  0  0  0  0  0  0  0  0  0  0  0
    2.8874   -0.0188  -10.1326 C   0  0  0  0  0  0  0  0  0  0  0  0
    2.5740   -1.2433   -9.5457 O   0  3  0  0  0  0  0  0  0  0  0  0
    3.1603   -0.0449  -11.5863 C   0  0  3  0  0  0  0  0  0  0  0  0
    3.0189   -1.3062  -12.2421 N   0  0  0  0  0  0  0  0  0  0  0  0
    4.1818   -0.9153  -12.0421 N   0  0  0  0  0  0  0  0  0  0  0  0
    1.8585   -4.1930   -5.8801 C   0  0  0  0  0  0  0  0  0  0  0  0
    3.0952   -4.6858   -5.6356 N   0  0  0  0  0  0  0  0  0  0  0  0
    3.1669   -5.9089   -5.0759 C   0  0  0  0  0  0  0  0  0  0  0  0
    4.3872   -6.3913   -4.8069 F   0  0  0  0  0  0  0  0  0  0  0  0
    2.0686   -6.6863   -4.7691 C   0  0  0  0  0  0  0  0  0  0  0  0
    0.7934   -6.1955   -5.0667 C   0  0  0  0  0  0  0  0  0  0  0  0
    0.6670   -4.9185   -5.6586 C   0  0  0  0  0  0  0  0  0  0  0  0
   -0.6273   -4.4598   -5.9884 C   0  0  0  0  0  0  0  0  0  0  0  0
   -1.7587   -5.2337   -5.6993 C   0  0  0  0  0  0  0  0  0  0  0  0
   -3.0879   -4.7571   -6.0940 C   0  0  0  0  0  0  0  0  0  0  0  0
   -3.2137   -3.8159   -6.8634 O   0  0  0  0  0  0  0  0  0  0  0  0
   -4.2785   -5.5024   -5.5342 C   0  0  0  0  0  0  0  0  0  0  0  0
   -5.4117   -5.2359   -5.9091 O   0  0  0  0  0  0  0  0  0  0  0  0
   -3.9325   -6.5172   -4.4676 C   0  0  1  0  0  0  0  0  0  0  0  0
   -2.7102   -7.2314   -4.7039 O   0  0  0  0  0  0  0  0  0  0  0  0
   -1.6401   -6.4580   -5.0588 C   0  0  0  0  0  0  0  0  0  0  0  0
   -0.3636   -6.9409   -4.7738 C   0  0  0  0  0  0  0  0  0  0  0  0
   -0.2392   -8.1420   -4.1856 F   0  0  0  0  0  0  0  0  0  0  0  0
   -3.9192   -5.8865   -3.1010 C   0  0  1  0  0  0  0  0  0  0  0  0
   -2.9873   -4.8051   -2.8852 O   0  0  0  0  0  0  0  0  0  0  0  0
   -5.2055   -5.7236   -2.5002 O   0  0  0  0  0  0  0  0  0  0  0  0
   -4.3278   -6.6544   -1.8619 C   0  0  3  0  0  0  0  0  0  0  0  0
   -3.7632   -6.1745   -0.6293 O   0  0  0  0  0  0  0  0  0  0  0  0
    0.9777   -1.4115   -1.8547 C   0  0  0  0  0  0  0  0  0  0  0  0
    1.4974   -2.3949   -1.3557 O   0  0  0  0  0  0  0  0  0  0  0  0
    0.2477   -0.3995   -1.0232 C   0  0  0  0  0  0  0  0  0  0  0  0
    0.7289   -0.0061    0.0255 O   0  0  0  0  0  0  0  0  0  0  0  0
   -1.0101    0.2143   -1.5948 C   0  0  0  0  0  0  0  0  0  0  0  0
   -1.7602    0.8894   -0.9105 O   0  0  0  0  0  0  0  0  0  0  0  0
  1  2  1  0  0  0  0
  2  3  2  0  0  0  0
  3  4  1  0  0  0  0
  3 53  1  0  0  0  0
  4  5  1  0  0  0  0
  5  6  1  6  0  0  0
  5 49  1  0  0  0  0
  6  7  1  0  0  0  0
  7  8  2  0  0  0  0
  7 12  1  0  0  0  0
  8  9  1  0  0  0  0
  8 26  1  0  0  0  0
  9 10  1  0  0  0  0
 10 11  2  0  0  0  0
 10 22  1  0  0  0  0
 11 12  1  0  0  0  0
 11 13  1  0  0  0  0
 13 14  1  0  0  0  0
 13 20  1  0  0  0  0
 14 15  1  0  0  0  0
 15 16  2  0  0  0  0
 15 17  1  0  0  0  0
 17 18  1  0  0  0  0
 18 19  2  0  0  0  0
 18 20  1  0  0  0  0
 20 21  2  0  0  0  0
 21 22  1  0  0  0  0
 21 23  1  0  0  0  0
 23 24  1  0  0  0  0
 23 25  1  0  0  0  0
 24 25  2  0  0  0  0
 26 27  2  0  0  0  0
 26 32  1  0  0  0  0
 27 28  1  0  0  0  0
 28 29  1  0  0  0  0
 28 30  2  0  0  0  0
 30 31  1  0  0  0  0
 31 32  2  0  0  0  0
 31 42  1  0  0  0  0
 32 33  1  0  0  0  0
 33 34  2  0  0  0  0
 34 35  1  0  0  0  0
 34 41  1  0  0  0  0
 35 36  2  0  0  0  0
 35 37  1  0  0  0  0
 37 38  2  0  0  0  0
 39 37  1  6  0  0  0
 39 40  1  0  0  0  0
 39 44  1  0  0  0  0
 40 41  1  0  0  0  0
 41 42  2  0  0  0  0
 42 43  1  0  0  0  0
 44 45  1  1  0  0  0
 44 46  1  0  0  0  0
 44 47  1  0  0  0  0
 46 47  1  0  0  0  0
 47 48  1  0  0  0  0
 49 50  2  0  0  0  0
 49 51  1  0  0  0  0
 51 52  2  0  0  0  0
 51 53  1  0  0  0  0
 53 54  2  0  0  0  0
M  CHG  1  22   1
M  END
$$$$