
 OpenBabel11232002243D

 53 63  0  0  1  0  0  0  0  0999 V2000
   -1.0300   -3.3398   -1.5602 O   0  0  0  0  0  0  0  0  0  0  0  0
   -0.3894   -2.2924   -0.9501 C   0  0  0  0  0  0  0  0  0  0  0  0
    0.5562   -2.4687   -0.0187 C   0  0  0  0  0  0  0  0  0  0  0  0
    0.8890   -3.7450    0.4040 O   0  0  0  0  0  0  0  0  0  0  0  0
    2.2328   -3.9298    0.8316 C   0  0  2  0  0  0  0  0  0  0  0  0
    2.4230   -5.2628    1.3552 O   0  0  0  0  0  0  0  0  0  0  0  0
    2.2839   -6.3193    0.4656 C   0  0  0  0  0  0  0  0  0  0  0  0
    1.9129   -7.5522    0.8863 C   0  0  0  0  0  0  0  0  0  0  0  0
    1.8990   -8.6537    0.0291 O   0  0  0  0  0  0  0  0  0  0  0  0
    2.5408   -8.5587   -1.2009 C   0  0  0  0  0  0  0  0  0  0  0  0
    2.9500   -7.3819   -1.7036 C   0  0  0  0  0  0  0  0  0  0  0  0
    2.6799   -6.0991   -0.9852 C   0  0  0  0  0  0  0  0  0  0  0  0
    3.7212   -7.3276   -3.0034 C   0  0  3  0  0  0  0  0  0  0  0  0
    5.0203   -6.7275   -2.7120 N   0  0  0  0  0  0  0  0  0  0  0  0
    5.9039   -6.6309   -3.7342 C   0  0  0  0  0  0  0  0  0  0  0  0
    6.6773   -5.6200   -3.8863 N   0  0  0  0  0  0  0  0  0  0  0  0
    5.9854   -7.7130   -4.5338 N   0  0  0  0  0  0  0  0  0  0  0  0
    4.8559   -8.5589   -4.8439 C   0  0  0  0  0  0  0  0  0  0  0  0
    4.0006   -8.6766   -3.6182 C   0  0  0  0  0  0  0  0  0  0  0  0
    3.5409   -9.8144   -3.0484 C   0  0  0  0  0  0  0  0  0  0  0  0
    2.7982   -9.7231   -1.8757 N   0  0  0  0  0  0  0  0  0  0  0  0
    3.7882  -11.1846   -3.5625 C   0  0  0  0  0  0  0  0  0  0  0  0
    3.2462  -12.3469   -2.9070 O   0  0  0  0  0  0  0  0  0  0  0  0
    2.7549  -11.9480   -4.2016 O   0  0  0  0  0  0  0  0  0  0  0  0
    1.5741   -7.9168    2.2859 C   0  0  0  0  0  0  0  0  0  0  0  0
    2.6111   -8.3686    3.1012 C   0  0  0  0  0  0  0  0  0  0  0  0
    2.3754   -8.7517    4.3615 N   0  3  0  0  0  0  0  0  0  0  0  0
    3.3920   -9.2172    5.1126 F   0  0  0  0  0  0  0  0  0  0  0  0
    1.1784   -8.7021    4.9082 N   0  0  0  0  0  0  0  0  0  0  0  0
    0.1400   -8.2792    4.1873 C   0  0  0  0  0  0  0  0  0  0  0  0
    0.2679   -7.8923    2.8374 C   0  0  0  0  0  0  0  0  0  0  0  0
   -0.9137   -7.5157    2.1467 C   0  0  0  0  0  0  0  0  0  0  0  0
   -2.1576   -7.4610    2.8055 C   0  0  0  0  0  0  0  0  0  0  0  0
   -3.3627   -7.0056    2.0944 C   0  0  0  0  0  0  0  0  0  0  0  0
   -3.3935   -7.0518    0.8701 O   0  0  0  0  0  0  0  0  0  0  0  0
   -4.4562   -6.4315    2.9540 C   0  0  3  0  0  0  0  0  0  0  0  0
   -4.0090   -5.0855    3.2944 O   0  0  0  0  0  0  0  0  0  0  0  0
   -4.8208   -4.5912    4.4494 O   0  0  0  0  0  0  0  0  0  0  0  0
   -4.7839   -5.6798    5.4052 C   0  0  3  0  0  0  0  0  0  0  0  0
   -5.8808   -6.6489    4.9250 C   0  0  2  0  0  0  0  0  0  0  0  0
   -4.5994   -7.1852    4.2393 C   0  0  2  0  0  0  0  0  0  0  0  0
   -3.4009   -7.7005    4.8902 O   0  0  0  0  0  0  0  0  0  0  0  0
   -2.2569   -7.7867    4.1455 C   0  0  0  0  0  0  0  0  0  0  0  0
   -1.1084   -8.2148    4.8058 C   0  0  0  0  0  0  0  0  0  0  0  0
   -1.2006   -8.5582    6.1021 F   0  0  0  0  0  0  0  0  0  0  0  0
   -5.7143   -7.9950    4.5773 O   0  0  0  0  0  0  0  0  0  0  0  0
   -5.8881   -6.1116    6.2149 O   0  0  0  0  0  0  0  0  0  0  0  0
    2.5658   -2.9519    1.9383 C   0  0  0  0  0  0  0  0  0  0  0  0
    2.9756   -3.2277    3.0521 O   0  0  0  0  0  0  0  0  0  0  0  0
    2.3431   -1.5293    1.5041 C   0  0  0  0  0  0  0  0  0  0  0  0
    3.1300   -0.6654    1.8261 O   0  0  0  0  0  0  0  0  0  0  0  0
    1.1817   -1.2395    0.5655 C   0  0  0  0  0  0  0  0  0  0  0  0
    0.8290   -0.1054    0.3198 O   0  0  0  0  0  0  0  0  0  0  0  0
  1  2  1  0  0  0  0
  2  3  2  0  0  0  0
  3  4  1  0  0  0  0
  3 52  1  0  0  0  0
  4  5  1  0  0  0  0
  5  6  1  1  0  0  0
  5 48  1  0  0  0  0
  6  7  1  0  0  0  0
  7  8  2  0  0  0  0
  7 12  1  0  0  0  0
  8  9  1  0  0  0  0
  8 25  1  0  0  0  0
  9 10  1  0  0  0  0
 10 11  2  0  0  0  0
 10 21  1  0  0  0  0
 11 12  1  0  0  0  0
 11 13  1  0  0  0  0
 13 14  1  0  0  0  0
 13 19  1  0  0  0  0
 14 15  1  0  0  0  0
 15 16  2  0  0  0  0
 15 17  1  0  0  0  0
 17 18  1  0  0  0  0
 18 19  1  0  0  0  0
 19 20  2  0  0  0  0
 20 21  1  0  0  0  0
 20 22  1  0  0  0  0
 22 23  1  0  0  0  0
 22 24  1  0  0  0  0
 23 24  1  0  0  0  0
 25 26  2  0  0  0  0
 25 31  1  0  0  0  0
 26 27  1  0  0  0  0
 27 29  2  0  0  0  0
 27 28  1  0  0  0  0
 29 30  1  0  0  0  0
 30 31  2  0  0  0  0
 30 44  1  0  0  0  0
 31 32  1  0  0  0  0
 32 33  2  0  0  0  0
 33 34  1  0  0  0  0
 33 43  1  0  0  0  0
 34 36  1  0  0  0  0
 34 35  2  0  0  0  0
 36 37  1  0  0  0  0
 36 41  1  0  0  0  0
 37 38  1  0  0  0  0
 38 39  1  0  0  0  0
 39 40  1  0  0  0  0
 39 47  1  0  0  0  0
 40 41  1  0  0  0  0
 40 46  1  6  0  0  0
 40 47  1  0  0  0  0
 41 42  1  1  0  0  0
 41 46  1  0  0  0  0
 42 43  1  0  0  0  0
 43 44  2  0  0  0  0
 44 45  1  0  0  0  0
 48 49  2  0  0  0  0
 48 50  1  0  0  0  0
 50 51  2  0  0  0  0
 50 52  1  0  0  0  0
 52 53  2  0  0  0  0
M  CHG  1  27   1
M  END
$$$$