
 OpenBabel11212020563D

 54 62  0  0  1  0  0  0  0  0999 V2000
   -1.6909    2.3615   -3.4817 O   0  0  0  0  0  0  0  0  0  0  0  0
   -1.0269    2.1471   -2.3003 C   0  0  0  0  0  0  0  0  0  0  0  0
    0.0663    1.3791   -2.1966 C   0  0  0  0  0  0  0  0  0  0  0  0
    0.5655    0.7076   -3.2987 O   0  0  0  0  0  0  0  0  0  0  0  0
    1.9431    0.3450   -3.2660 C   0  0  2  0  0  0  0  0  0  0  0  0
    2.3023   -0.3999   -4.4490 O   0  0  0  0  0  0  0  0  0  0  0  0
    2.1486    0.2554   -5.6699 C   0  0  0  0  0  0  0  0  0  0  0  0
    2.0044   -0.4100   -6.8428 C   0  0  0  0  0  0  0  0  0  0  0  0
    1.9624    0.2689   -8.0735 O   0  0  0  0  0  0  0  0  0  0  0  0
    2.2220    1.6266   -8.1394 C   0  0  0  0  0  0  0  0  0  0  0  0
    2.3833    2.3593   -7.0285 C   0  0  0  0  0  0  0  0  0  0  0  0
    2.3019    1.7566   -5.6690 C   0  0  0  0  0  0  0  0  0  0  0  0
    2.6444    3.8311   -7.0653 C   0  0  3  0  0  0  0  0  0  0  0  0
    3.9313    4.0490   -6.5159 O   0  0  0  0  0  0  0  0  0  0  0  0
    4.4232    5.3146   -6.5188 C   0  0  0  0  0  0  0  0  0  0  0  0
    5.3698    5.6306   -5.8166 O   0  0  0  0  0  0  0  0  0  0  0  0
    3.8146    6.1914   -7.3537 O   0  0  0  0  0  0  0  0  0  0  0  0
    2.9279    5.8112   -8.4002 C   0  0  3  0  0  0  0  0  0  0  0  0
    2.6808    4.3486   -8.4477 C   0  0  0  0  0  0  0  0  0  0  0  0
    2.5206    3.5592   -9.5347 C   0  0  0  0  0  0  0  0  0  0  0  0
    2.3072    2.1944   -9.3862 O   0  3  0  0  0  0  0  0  0  0  0  0
    2.5696    4.0666  -10.9225 C   0  0  0  0  0  0  0  0  0  0  0  0
    3.8060    4.1170  -11.6443 O   0  0  0  0  0  0  0  0  0  0  0  0
    2.7876    3.1707  -12.0245 O   0  0  0  0  0  0  0  0  0  0  0  0
    1.6612    6.3913   -8.1535 O   0  0  0  0  0  0  0  0  0  0  0  0
    2.0834   -1.8883   -7.0385 C   0  0  0  0  0  0  0  0  0  0  0  0
    2.8696   -2.1837   -8.1079 N   0  0  0  0  0  0  0  0  0  0  0  0
    3.1541   -3.4741   -8.3347 C   0  0  0  0  0  0  0  0  0  0  0  0
    3.9180   -3.7560   -9.3985 F   0  0  0  0  0  0  0  0  0  0  0  0
    2.7183   -4.5100   -7.5393 C   0  0  0  0  0  0  0  0  0  0  0  0
    1.8757   -4.2434   -6.4439 C   0  0  0  0  0  0  0  0  0  0  0  0
    1.4873   -2.8925   -6.2262 C   0  0  0  0  0  0  0  0  0  0  0  0
    0.5230   -2.6426   -5.2243 C   0  0  0  0  0  0  0  0  0  0  0  0
    0.0704   -3.6551   -4.3683 C   0  0  0  0  0  0  0  0  0  0  0  0
   -0.8982   -3.3323   -3.3110 C   0  0  0  0  0  0  0  0  0  0  0  0
   -1.3830   -2.2162   -3.2042 O   0  0  0  0  0  0  0  0  0  0  0  0
   -1.2459   -4.4432   -2.3464 C   0  0  0  0  0  0  0  0  0  0  0  0
   -2.2464   -4.3811   -1.6476 O   0  0  0  0  0  0  0  0  0  0  0  0
   -0.2292   -5.5558   -2.3048 C   0  0  1  0  0  0  0  0  0  0  0  0
    0.2092   -5.9537   -3.6119 O   0  0  0  0  0  0  0  0  0  0  0  0
    0.5487   -4.9522   -4.4849 C   0  0  0  0  0  0  0  0  0  0  0  0
    1.4092   -5.2558   -5.5512 C   0  0  0  0  0  0  0  0  0  0  0  0
    1.9858   -7.0759   -5.7412 Br  0  0  0  0  0  0  0  0  0  0  0  0
    0.9299   -5.1945   -1.4302 C   0  0  1  0  0  0  0  0  0  0  0  0
    1.6645   -4.0080   -1.8047 O   0  0  0  0  0  0  0  0  0  0  0  0
    0.6872   -5.3545   -0.0327 O   0  0  0  0  0  0  0  0  0  0  0  0
    1.6441   -6.1375   -0.5714 C   0  0  0  0  0  0  0  0  0  0  0  0
    2.8233   -6.2077   -0.3124 O   0  0  0  0  0  0  0  0  0  0  0  0
    2.2951   -0.4072   -1.9930 C   0  0  0  0  0  0  0  0  0  0  0  0
    2.8881   -1.4697   -1.9006 O   0  0  0  0  0  0  0  0  0  0  0  0
    1.9056    0.3840   -0.7765 C   0  0  0  0  0  0  0  0  0  0  0  0
    2.6448    0.4074    0.1941 O   0  0  0  0  0  0  0  0  0  0  0  0
    0.6681    1.2492   -0.8364 C   0  0  0  0  0  0  0  0  0  0  0  0
    0.2391    1.8141    0.1562 O   0  0  0  0  0  0  0  0  0  0  0  0
  1  2  1  0  0  0  0
  2  3  2  0  0  0  0
  3  4  1  0  0  0  0
  3 53  1  0  0  0  0
  4  5  1  0  0  0  0
  5  6  1  6  0  0  0
  5 49  1  0  0  0  0
  6  7  1  0  0  0  0
  7  8  2  0  0  0  0
  7 12  1  0  0  0  0
  8  9  1  0  0  0  0
  8 26  1  0  0  0  0
  9 10  1  0  0  0  0
 10 11  2  0  0  0  0
 10 21  1  0  0  0  0
 11 12  1  0  0  0  0
 11 13  1  0  0  0  0
 13 14  1  0  0  0  0
 13 19  1  0  0  0  0
 14 15  1  0  0  0  0
 15 16  2  0  0  0  0
 15 17  1  0  0  0  0
 17 18  1  0  0  0  0
 18 19  1  0  0  0  0
 18 25  1  0  0  0  0
 19 20  2  0  0  0  0
 20 21  1  0  0  0  0
 20 22  1  0  0  0  0
 22 23  1  0  0  0  0
 22 24  1  0  0  0  0
 23 24  1  0  0  0  0
 26 27  2  0  0  0  0
 26 32  1  0  0  0  0
 27 28  1  0  0  0  0
 28 29  1  0  0  0  0
 28 30  2  0  0  0  0
 30 31  1  0  0  0  0
 31 32  2  0  0  0  0
 31 42  1  0  0  0  0
 32 33  1  0  0  0  0
 33 34  2  0  0  0  0
 34 35  1  0  0  0  0
 34 41  1  0  0  0  0
 35 36  2  0  0  0  0
 35 37  1  0  0  0  0
 37 38  2  0  0  0  0
 39 37  1  6  0  0  0
 39 40  1  0  0  0  0
 39 44  1  0  0  0  0
 40 41  1  0  0  0  0
 41 42  2  0  0  0  0
 42 43  1  0  0  0  0
 44 45  1  6  0  0  0
 44 46  1  0  0  0  0
 44 47  1  0  0  0  0
 46 47  1  0  0  0  0
 47 48  2  0  0  0  0
 49 50  2  0  0  0  0
 49 51  1  0  0  0  0
 51 52  2  0  0  0  0
 51 53  1  0  0  0  0
 53 54  2  0  0  0  0
M  CHG  1  21   1
M  END
$$$$