
 OpenBabel11142001013D

 52 60  0  0  1  0  0  0  0  0999 V2000
   -1.4002    1.1269   -4.0982 O   0  0  0  0  0  0  0  0  0  0  0  0
   -1.0436    1.0819   -2.7752 C   0  0  0  0  0  0  0  0  0  0  0  0
   -0.2676    0.1141   -2.2762 C   0  0  0  0  0  0  0  0  0  0  0  0
    0.1906   -0.9132   -3.0808 O   0  0  0  0  0  0  0  0  0  0  0  0
    1.5439   -1.2619   -2.7942 C   0  0  2  0  0  0  0  0  0  0  0  0
    2.0720   -2.1687   -3.7571 O   0  0  0  0  0  0  0  0  0  0  0  0
    2.0852   -1.7582   -5.0837 C   0  0  0  0  0  0  0  0  0  0  0  0
    2.0036   -2.6700   -6.0763 C   0  0  0  0  0  0  0  0  0  0  0  0
    2.0931   -2.3282   -7.4235 O   0  0  0  0  0  0  0  0  0  0  0  0
    2.2865   -1.0084   -7.7831 C   0  0  0  0  0  0  0  0  0  0  0  0
    2.3756   -0.0199   -6.8774 C   0  0  0  0  0  0  0  0  0  0  0  0
    2.3075   -0.2972   -5.4066 C   0  0  0  0  0  0  0  0  0  0  0  0
    2.5161    1.4168   -7.3313 C   0  0  3  0  0  0  0  0  0  0  0  0
    3.6669    1.9626   -6.6792 O   0  0  0  0  0  0  0  0  0  0  0  0
    4.2070    3.1117   -7.1189 C   0  0  0  0  0  0  0  0  0  0  0  0
    5.1018    3.6951   -6.4100 N   0  0  0  0  0  0  0  0  0  0  0  0
    3.8315    3.6284   -8.2994 O   0  0  0  0  0  0  0  0  0  0  0  0
    2.9010    2.9909   -9.1659 C   0  0  3  0  0  0  0  0  0  0  0  0
    2.6785    1.5748   -8.8063 C   0  0  0  0  0  0  0  0  0  0  0  0
    2.6268    0.5203   -9.6503 C   0  0  0  0  0  0  0  0  0  0  0  0
    2.3997   -0.7391   -9.1227 N   0  0  0  0  0  0  0  0  0  0  0  0
    2.8072    0.6005  -11.1171 C   0  0  0  0  0  0  0  0  0  0  0  0
    2.1133   -0.2756  -12.0218 O   0  0  0  0  0  0  0  0  0  0  0  0
    1.7916    1.1288  -11.9828 O   0  0  0  0  0  0  0  0  0  0  0  0
    1.6589    3.6682   -9.0831 O   0  0  0  0  0  0  0  0  0  0  0  0
    1.7838   -4.1592   -5.8556 C   0  0  3  0  0  0  0  0  0  0  0  0
    0.4645   -4.4742   -5.6836 N   0  0  0  0  0  0  0  0  0  0  0  0
    0.1616   -5.5717   -4.9772 C   0  0  0  0  0  0  0  0  0  0  0  0
    1.0371   -6.3512   -4.3343 N   0  0  0  0  0  0  0  0  0  0  0  0
    2.3089   -5.9544   -4.3309 C   0  0  0  0  0  0  0  0  0  0  0  0
    2.7572   -4.8247   -5.0401 C   0  0  0  0  0  0  0  0  0  0  0  0
    4.1234   -4.4566   -4.9362 C   0  0  0  0  0  0  0  0  0  0  0  0
    5.0138   -5.2116   -4.1707 C   0  0  0  0  0  0  0  0  0  0  0  0
    4.5784   -6.3617   -3.5352 C   0  0  0  0  0  0  0  0  0  0  0  0
    3.2266   -6.7055   -3.6033 C   0  0  0  0  0  0  0  0  0  0  0  0
    5.3810   -7.2062   -2.8249 O   0  0  0  0  0  0  0  0  0  0  0  0
    6.7931   -7.0878   -3.0400 C   0  0  2  0  0  0  0  0  0  0  0  0
    7.3220   -5.6887   -3.2417 C   0  0  0  0  0  0  0  0  0  0  0  0
    8.4183   -5.3001   -2.8628 O   0  0  0  0  0  0  0  0  0  0  0  0
    6.4073   -4.7808   -4.0258 C   0  0  0  0  0  0  0  0  0  0  0  0
    6.8086   -3.7299   -4.5009 O   0  0  0  0  0  0  0  0  0  0  0  0
    7.2174   -7.9989   -4.1546 C   0  0  1  0  0  0  0  0  0  0  0  0
    6.5780   -7.8134   -5.4382 O   0  0  0  0  0  0  0  0  0  0  0  0
    8.6284   -8.2798   -4.2290 O   0  0  0  0  0  0  0  0  0  0  0  0
    7.8232   -9.2786   -3.8601 C   0  0  0  0  0  0  0  0  0  0  0  0
    7.8057  -10.0011   -2.8907 O   0  0  0  0  0  0  0  0  0  0  0  0
    1.6025   -1.9016   -1.4141 C   0  0  0  0  0  0  0  0  0  0  0  0
    2.2192   -2.9108   -1.1049 O   0  0  0  0  0  0  0  0  0  0  0  0
    0.8487   -1.0918   -0.3811 C   0  0  0  0  0  0  0  0  0  0  0  0
    0.8438   -1.4195    0.7943 O   0  0  0  0  0  0  0  0  0  0  0  0
    0.1068    0.1515   -0.8361 C   0  0  0  0  0  0  0  0  0  0  0  0
   -0.0865    1.1012   -0.0973 O   0  0  0  0  0  0  0  0  0  0  0  0
  1  2  1  0  0  0  0
  2  3  2  0  0  0  0
  3  4  1  0  0  0  0
  3 51  1  0  0  0  0
  4  5  1  0  0  0  0
  5  6  1  6  0  0  0
  5 47  1  0  0  0  0
  6  7  1  0  0  0  0
  7  8  2  0  0  0  0
  7 12  1  0  0  0  0
  8  9  1  0  0  0  0
  8 26  1  0  0  0  0
  9 10  1  0  0  0  0
 10 11  2  0  0  0  0
 10 21  1  0  0  0  0
 11 12  1  0  0  0  0
 11 13  1  0  0  0  0
 13 14  1  0  0  0  0
 13 19  1  0  0  0  0
 14 15  1  0  0  0  0
 15 16  2  0  0  0  0
 15 17  1  0  0  0  0
 17 18  1  0  0  0  0
 18 19  1  0  0  0  0
 18 25  1  0  0  0  0
 19 20  2  0  0  0  0
 20 21  1  0  0  0  0
 20 22  1  0  0  0  0
 22 23  1  0  0  0  0
 22 24  1  0  0  0  0
 23 24  1  0  0  0  0
 26 27  1  0  0  0  0
 26 31  1  0  0  0  0
 27 28  2  0  0  0  0
 28 29  2  0  0  0  0
 29 30  1  0  0  0  0
 30 31  2  0  0  0  0
 30 35  1  0  0  0  0
 31 32  1  0  0  0  0
 32 33  2  0  0  0  0
 33 34  1  0  0  0  0
 33 40  1  0  0  0  0
 34 35  2  0  0  0  0
 34 36  1  0  0  0  0
 37 36  1  6  0  0  0
 37 38  1  0  0  0  0
 37 42  1  0  0  0  0
 38 39  2  0  0  0  0
 38 40  1  0  0  0  0
 40 41  2  0  0  0  0
 42 43  1  6  0  0  0
 42 44  1  0  0  0  0
 42 45  1  0  0  0  0
 44 45  1  0  0  0  0
 45 46  2  0  0  0  0
 47 48  2  0  0  0  0
 47 49  1  0  0  0  0
 49 50  2  0  0  0  0
 49 51  1  0  0  0  0
 51 52  2  0  0  0  0
M  END
$$$$