
 OpenBabel10242013283D

 52 59  0  0  1  0  0  0  0  0999 V2000
    6.2818   -1.3299   -8.3569 O   0  0  0  0  0  0  0  0  0  0  0  0
    5.9819   -2.4378   -7.6093 C   0  0  0  0  0  0  0  0  0  0  0  0
    5.1956   -2.3929   -6.5275 C   0  0  0  0  0  0  0  0  0  0  0  0
    4.6516   -1.2005   -6.0800 O   0  0  0  0  0  0  0  0  0  0  0  0
    3.3961   -1.3457   -5.4094 C   0  0  2  0  0  0  0  0  0  0  0  0
    2.8410   -0.0672   -5.0595 O   0  0  0  0  0  0  0  0  0  0  0  0
    2.5602    0.8200   -6.0943 C   0  0  0  0  0  0  0  0  0  0  0  0
    2.6393    2.1582   -5.9117 C   0  0  0  0  0  0  0  0  0  0  0  0
    2.3754    3.0811   -6.9208 O   0  0  0  0  0  0  0  0  0  0  0  0
    2.0186    2.6403   -8.1799 C   0  0  0  0  0  0  0  0  0  0  0  0
    1.8425    1.3375   -8.4453 C   0  0  0  0  0  0  0  0  0  0  0  0
    2.0652    0.2717   -7.4211 C   0  0  0  0  0  0  0  0  0  0  0  0
    1.4699    0.9543   -9.8388 C   0  0  0  0  0  0  0  0  0  0  0  0
    1.2639   -0.2834  -10.1487 N   0  0  0  0  0  0  0  0  0  0  0  0
    0.9411   -0.6088  -11.4522 C   0  0  0  0  0  0  0  0  0  0  0  0
    0.7443   -1.7874  -11.7182 O   0  0  0  0  0  0  0  0  0  0  0  0
    0.8372    0.3212  -12.4676 N   0  0  0  0  0  0  0  0  0  0  0  0
    1.0358    1.5631  -12.1927 C   0  0  0  0  0  0  0  0  0  0  0  0
    1.3679    2.0377  -10.8471 C   0  0  0  0  0  0  0  0  0  0  0  0
    1.5878    3.3150  -10.4790 C   0  0  0  0  0  0  0  0  0  0  0  0
    1.8783    3.6015   -9.1465 N   0  0  0  0  0  0  0  0  0  0  0  0
    1.5450    4.4549  -11.4737 C   0  0  0  0  0  0  0  0  0  0  0  0
    1.8132    5.6462  -10.8810 F   0  0  0  0  0  0  0  0  0  0  0  0
    2.4572    4.2869  -12.4619 F   0  0  0  0  0  0  0  0  0  0  0  0
    0.3299    4.5631  -12.0622 F   0  0  0  0  0  0  0  0  0  0  0  0
    2.9637    2.8324   -4.6385 C   0  0  0  0  0  0  0  0  0  0  0  0
    1.8834    3.0963   -3.8710 N   0  0  0  0  0  0  0  0  0  0  0  0
    2.0961    3.8660   -2.8003 C   0  0  0  0  0  0  0  0  0  0  0  0
    3.2677    4.4011   -2.4337 N   0  0  0  0  0  0  0  0  0  0  0  0
    4.3242    4.1404   -3.2065 C   0  0  0  0  0  0  0  0  0  0  0  0
    4.2441    3.3389   -4.3570 C   0  0  0  0  0  0  0  0  0  0  0  0
    5.4014    3.1488   -5.1505 C   0  0  0  0  0  0  0  0  0  0  0  0
    6.6030    3.7708   -4.8000 C   0  0  0  0  0  0  0  0  0  0  0  0
    6.6902    4.5350   -3.6452 C   0  0  0  0  0  0  0  0  0  0  0  0
    5.5450    4.7172   -2.8685 C   0  0  0  0  0  0  0  0  0  0  0  0
    7.8235    5.1576   -3.2022 O   0  0  0  0  0  0  0  0  0  0  0  0
    9.0647    4.7908   -3.8240 C   0  0  2  0  0  0  0  0  0  0  0  0
    8.9527    4.5284   -5.3028 C   0  0  0  0  0  0  0  0  0  0  0  0
    9.7278    4.9410   -6.1529 O   0  0  0  0  0  0  0  0  0  0  0  0
    7.7696    3.6745   -5.6815 C   0  0  0  0  0  0  0  0  0  0  0  0
    7.7858    2.9685   -6.6760 O   0  0  0  0  0  0  0  0  0  0  0  0
    9.6982    3.6362   -3.1071 C   0  0  1  0  0  0  0  0  0  0  0  0
    8.9289    2.4172   -3.0094 O   0  0  0  0  0  0  0  0  0  0  0  0
   11.0873    3.4176   -3.3508 O   0  0  0  0  0  0  0  0  0  0  0  0
   10.7538    3.8598   -2.1219 C   0  0  0  0  0  0  0  0  0  0  0  0
   11.1250    4.8476   -1.5252 O   0  0  0  0  0  0  0  0  0  0  0  0
    3.5963   -2.1816   -4.1479 C   0  0  0  0  0  0  0  0  0  0  0  0
    3.1773   -1.9271   -3.0287 O   0  0  0  0  0  0  0  0  0  0  0  0
    4.3675   -3.4546   -4.4147 C   0  0  0  0  0  0  0  0  0  0  0  0
    4.5124   -4.2976   -3.5437 O   0  0  0  0  0  0  0  0  0  0  0  0
    4.9785   -3.6620   -5.7823 C   0  0  0  0  0  0  0  0  0  0  0  0
    5.2388   -4.7718   -6.2142 O   0  0  0  0  0  0  0  0  0  0  0  0
  1  2  1  0  0  0  0
  2  3  2  0  0  0  0
  3  4  1  0  0  0  0
  3 51  1  0  0  0  0
  4  5  1  0  0  0  0
  5  6  1  1  0  0  0
  5 47  1  0  0  0  0
  6  7  1  0  0  0  0
  7  8  2  0  0  0  0
  7 12  1  0  0  0  0
  8  9  1  0  0  0  0
  8 26  1  0  0  0  0
  9 10  1  0  0  0  0
 10 11  2  0  0  0  0
 10 21  1  0  0  0  0
 11 12  1  0  0  0  0
 11 13  1  0  0  0  0
 13 14  2  0  0  0  0
 13 19  1  0  0  0  0
 14 15  1  0  0  0  0
 15 16  2  0  0  0  0
 15 17  1  0  0  0  0
 17 18  2  0  0  0  0
 18 19  1  0  0  0  0
 19 20  2  0  0  0  0
 20 21  1  0  0  0  0
 20 22  1  0  0  0  0
 22 23  1  0  0  0  0
 22 24  1  0  0  0  0
 22 25  1  0  0  0  0
 26 27  2  0  0  0  0
 26 31  1  0  0  0  0
 27 28  1  0  0  0  0
 28 29  2  0  0  0  0
 29 30  1  0  0  0  0
 30 31  2  0  0  0  0
 30 35  1  0  0  0  0
 31 32  1  0  0  0  0
 32 33  2  0  0  0  0
 33 34  1  0  0  0  0
 33 40  1  0  0  0  0
 34 35  2  0  0  0  0
 34 36  1  0  0  0  0
 37 36  1  1  0  0  0
 37 38  1  0  0  0  0
 37 42  1  0  0  0  0
 38 39  2  0  0  0  0
 38 40  1  0  0  0  0
 40 41  2  0  0  0  0
 42 43  1  1  0  0  0
 42 44  1  0  0  0  0
 42 45  1  0  0  0  0
 44 45  1  0  0  0  0
 45 46  2  0  0  0  0
 47 48  2  0  0  0  0
 47 49  1  0  0  0  0
 49 50  2  0  0  0  0
 49 51  1  0  0  0  0
 51 52  2  0  0  0  0
M  END
$$$$