
 OpenBabel11212021373D

 54 62  0  0  1  0  0  0  0  0999 V2000
    7.1789   -1.9180    3.8437 O   0  0  0  0  0  0  0  0  0  0  0  0
    6.8162   -0.6036    3.6819 C   0  0  0  0  0  0  0  0  0  0  0  0
    5.5424   -0.2192    3.5412 C   0  0  0  0  0  0  0  0  0  0  0  0
    4.5329   -1.1670    3.5123 O   0  0  0  0  0  0  0  0  0  0  0  0
    3.3069   -0.7449    4.0911 C   0  0  2  0  0  0  0  0  0  0  0  0
    2.3443   -1.8131    4.0290 O   0  0  0  0  0  0  0  0  0  0  0  0
    2.5844   -2.9384    4.8105 C   0  0  0  0  0  0  0  0  0  0  0  0
    2.1471   -4.1669    4.4399 C   0  0  0  0  0  0  0  0  0  0  0  0
    2.3375   -5.2953    5.2515 O   0  0  0  0  0  0  0  0  0  0  0  0
    2.9474   -5.1680    6.5049 C   0  0  0  0  0  0  0  0  0  0  0  0
    3.3632   -3.9713    6.9566 C   0  0  0  0  0  0  0  0  0  0  0  0
    3.2559   -2.7260    6.1399 C   0  0  0  0  0  0  0  0  0  0  0  0
    3.9837   -3.7913    8.3138 C   0  0  3  0  0  0  0  0  0  0  0  0
    3.1219   -2.9455    9.0632 O   0  0  0  0  0  0  0  0  0  0  0  0
    3.4281   -2.7569   10.3627 C   0  0  0  0  0  0  0  0  0  0  0  0
    2.8935   -1.7990   11.0155 N   0  0  0  0  0  0  0  0  0  0  0  0
    4.2881   -3.6021   10.9543 O   0  0  0  0  0  0  0  0  0  0  0  0
    4.7059   -4.8325   10.3749 C   0  0  3  0  0  0  0  0  0  0  0  0
    4.0920   -5.0738    9.0428 C   0  0  0  0  0  0  0  0  0  0  0  0
    3.6825   -6.2534    8.5275 C   0  0  0  0  0  0  0  0  0  0  0  0
    3.1011   -6.3066    7.2677 O   0  3  0  0  0  0  0  0  0  0  0  0
    3.7982   -7.5453    9.2411 C   0  0  0  0  0  0  0  0  0  0  0  0
    2.7135   -8.0491   10.0290 O   0  0  0  0  0  0  0  0  0  0  0  0
    3.0596   -8.6931    8.7875 O   0  0  0  0  0  0  0  0  0  0  0  0
    6.0974   -4.7819   10.1321 O   0  0  0  0  0  0  0  0  0  0  0  0
    1.3742   -4.3894    3.1726 C   0  0  0  0  0  0  0  0  0  0  0  0
    0.5658   -3.3659    2.8513 N   0  0  0  0  0  0  0  0  0  0  0  0
   -0.0916   -3.3896    1.7157 N   0  3  0  0  0  0  0  0  0  0  0  0
   -0.8780   -2.3391    1.4098 F   0  0  0  0  0  0  0  0  0  0  0  0
   -0.0244   -4.3900    0.8692 N   0  0  0  0  0  0  0  0  0  0  0  0
    0.7273   -5.4464    1.1662 C   0  0  0  0  0  0  0  0  0  0  0  0
    1.4594   -5.5270    2.3543 C   0  0  0  0  0  0  0  0  0  0  0  0
    2.2062   -6.7110    2.5993 C   0  0  0  0  0  0  0  0  0  0  0  0
    2.2356   -7.7623    1.6689 C   0  0  0  0  0  0  0  0  0  0  0  0
    2.9857   -8.9802    1.9657 C   0  0  0  0  0  0  0  0  0  0  0  0
    3.4114   -9.1586    3.0982 O   0  0  0  0  0  0  0  0  0  0  0  0
    3.1834   -9.9734    0.8411 C   0  0  0  0  0  0  0  0  0  0  0  0
    3.7474  -11.0331    1.0688 O   0  0  0  0  0  0  0  0  0  0  0  0
    2.6799   -9.5234   -0.5198 C   0  0  1  0  0  0  0  0  0  0  0  0
    1.5559   -8.6226   -0.4878 O   0  0  0  0  0  0  0  0  0  0  0  0
    1.5460   -7.6632    0.4811 C   0  0  0  0  0  0  0  0  0  0  0  0
    0.7909   -6.5087    0.2577 C   0  0  0  0  0  0  0  0  0  0  0  0
    0.1079   -6.4004   -0.8930 F   0  0  0  0  0  0  0  0  0  0  0  0
    3.8002   -9.0190   -1.4026 C   0  0  1  0  0  0  0  0  0  0  0  0
    4.8592   -9.9480   -1.6919 O   0  0  0  0  0  0  0  0  0  0  0  0
    3.4053   -8.2017   -2.5132 O   0  0  0  0  0  0  0  0  0  0  0  0
    4.1252   -7.6097   -1.5513 C   0  0  0  0  0  0  0  0  0  0  0  0
    3.8826   -6.6494   -0.8374 O   0  0  0  0  0  0  0  0  0  0  0  0
    2.7806    0.4661    3.3506 C   0  0  0  0  0  0  0  0  0  0  0  0
    1.6927    0.5565    2.8037 O   0  0  0  0  0  0  0  0  0  0  0  0
    3.7802    1.5923    3.3901 C   0  0  0  0  0  0  0  0  0  0  0  0
    3.3929    2.7364    3.5489 O   0  0  0  0  0  0  0  0  0  0  0  0
    5.2583    1.2421    3.3903 C   0  0  0  0  0  0  0  0  0  0  0  0
    6.1232    2.0962    3.3135 O   0  0  0  0  0  0  0  0  0  0  0  0
  1  2  1  0  0  0  0
  2  3  2  0  0  0  0
  3  4  1  0  0  0  0
  3 53  1  0  0  0  0
  4  5  1  0  0  0  0
  5  6  1  6  0  0  0
  5 49  1  0  0  0  0
  6  7  1  0  0  0  0
  7  8  2  0  0  0  0
  7 12  1  0  0  0  0
  8  9  1  0  0  0  0
  8 26  1  0  0  0  0
  9 10  1  0  0  0  0
 10 11  2  0  0  0  0
 10 21  1  0  0  0  0
 11 12  1  0  0  0  0
 11 13  1  0  0  0  0
 13 14  1  0  0  0  0
 13 19  1  0  0  0  0
 14 15  1  0  0  0  0
 15 16  2  0  0  0  0
 15 17  1  0  0  0  0
 17 18  1  0  0  0  0
 18 19  1  0  0  0  0
 18 25  1  0  0  0  0
 19 20  2  0  0  0  0
 20 21  1  0  0  0  0
 20 22  1  0  0  0  0
 22 23  1  0  0  0  0
 22 24  1  0  0  0  0
 23 24  1  0  0  0  0
 26 27  2  0  0  0  0
 26 32  1  0  0  0  0
 27 28  1  0  0  0  0
 28 29  1  0  0  0  0
 28 30  2  0  0  0  0
 30 31  1  0  0  0  0
 31 32  2  0  0  0  0
 31 42  1  0  0  0  0
 32 33  1  0  0  0  0
 33 34  2  0  0  0  0
 34 35  1  0  0  0  0
 34 41  1  0  0  0  0
 35 36  2  0  0  0  0
 35 37  1  0  0  0  0
 37 38  2  0  0  0  0
 39 37  1  1  0  0  0
 39 40  1  0  0  0  0
 39 44  1  0  0  0  0
 40 41  1  0  0  0  0
 41 42  2  0  0  0  0
 42 43  1  0  0  0  0
 44 45  1  6  0  0  0
 44 46  1  0  0  0  0
 44 47  1  0  0  0  0
 46 47  1  0  0  0  0
 47 48  2  0  0  0  0
 49 50  2  0  0  0  0
 49 51  1  0  0  0  0
 51 52  2  0  0  0  0
 51 53  1  0  0  0  0
 53 54  2  0  0  0  0
M  CHG  2  21   1  28   1
M  END
$$$$