
 OpenBabel11262000443D

 54 62  0  0  1  0  0  0  0  0999 V2000
   -1.4872    4.5848   -0.6604 O   0  0  0  0  0  0  0  0  0  0  0  0
   -0.3050    4.9716   -1.2394 C   0  0  0  0  0  0  0  0  0  0  0  0
    0.8502    4.9648   -0.5676 C   0  0  0  0  0  0  0  0  0  0  0  0
    0.8714    4.6108    0.7638 O   0  0  0  0  0  0  0  0  0  0  0  0
    1.9544    3.7739    1.0728 C   0  0  2  0  0  0  0  0  0  0  0  0
    1.9265    3.3923    2.4800 O   0  0  0  0  0  0  0  0  0  0  0  0
    2.0549    4.3960    3.4402 C   0  0  0  0  0  0  0  0  0  0  0  0
    2.6852    4.1234    4.5977 C   0  0  0  0  0  0  0  0  0  0  0  0
    2.7858    5.0349    5.6550 O   0  0  0  0  0  0  0  0  0  0  0  0
    2.1603    6.2930    5.5503 C   0  0  0  0  0  0  0  0  0  0  0  0
    1.5134    6.6498    4.4228 C   0  0  0  0  0  0  0  0  0  0  0  0
    1.4150    5.7478    3.2196 C   0  0  0  0  0  0  0  0  0  0  0  0
    0.8181    7.9884    4.2843 C   0  0  3  0  0  0  0  0  0  0  0  0
   -0.5546    7.7108    4.0452 O   0  0  0  0  0  0  0  0  0  0  0  0
   -1.4611    8.7033    4.1542 C   0  0  0  0  0  0  0  0  0  0  0  0
   -2.6555    8.5182    3.7473 N   0  0  0  0  0  0  0  0  0  0  0  0
   -1.1093    9.8489    4.7534 O   0  0  0  0  0  0  0  0  0  0  0  0
    0.1667   10.0604    5.3355 C   0  0  3  0  0  0  0  0  0  0  0  0
    0.9149    8.7884    5.5268 C   0  0  0  0  0  0  0  0  0  0  0  0
    1.5820    8.3793    6.6246 C   0  0  0  0  0  0  0  0  0  0  0  0
    2.2186    7.1457    6.6380 O   0  3  0  0  0  0  0  0  0  0  0  0
    1.6665    9.1486    7.8887 C   0  0  0  0  0  0  0  0  0  0  0  0
    0.7731    8.8692    8.9735 O   0  0  0  0  0  0  0  0  0  0  0  0
    2.1639    8.5072    9.0797 O   0  0  0  0  0  0  0  0  0  0  0  0
    0.8779   10.8331    4.4778 F   0  0  0  0  0  0  0  0  0  0  0  0
    3.3120    2.7971    4.8201 C   0  0  0  0  0  0  0  0  0  0  0  0
    4.6464    2.5977    4.4456 C   0  0  0  0  0  0  0  0  0  0  0  0
    5.2316    1.4203    4.6835 N   0  3  0  0  0  0  0  0  0  0  0  0
    6.5167    1.2331    4.3162 F   0  0  0  0  0  0  0  0  0  0  0  0
    4.5999    0.4358    5.2985 N   0  0  0  0  0  0  0  0  0  0  0  0
    3.3008    0.5879    5.6307 C   0  0  0  0  0  0  0  0  0  0  0  0
    2.6021    1.7563    5.3631 N   0  3  0  0  0  0  0  0  0  0  0  0
    1.2619    1.8158    5.6243 C   0  0  0  0  0  0  0  0  0  0  0  0
    0.5894    0.7592    6.2296 C   0  0  0  0  0  0  0  0  0  0  0  0
   -0.8474    0.8612    6.4582 C   0  0  0  0  0  0  0  0  0  0  0  0
   -1.4198    1.8870    6.1396 O   0  0  0  0  0  0  0  0  0  0  0  0
   -1.5124   -0.3484    7.0771 C   0  0  0  0  0  0  0  0  0  0  0  0
   -2.6727   -0.6129    6.8242 O   0  0  0  0  0  0  0  0  0  0  0  0
   -0.5765   -1.1549    7.9514 C   0  0  1  0  0  0  0  0  0  0  0  0
    0.6972   -1.4021    7.3010 O   0  0  0  0  0  0  0  0  0  0  0  0
    1.2696   -0.3687    6.6184 C   0  0  0  0  0  0  0  0  0  0  0  0
    2.6168   -0.4517    6.2826 C   0  0  0  0  0  0  0  0  0  0  0  0
    3.3007   -1.5581    6.6051 F   0  0  0  0  0  0  0  0  0  0  0  0
   -0.3585   -0.4683    9.2610 C   0  0  1  0  0  0  0  0  0  0  0  0
    0.1943    0.8822    9.2110 O   0  0  0  0  0  0  0  0  0  0  0  0
   -1.3526   -0.6835   10.2463 O   0  0  0  0  0  0  0  0  0  0  0  0
   -0.1252   -1.1839   10.5304 C   0  0  0  0  0  0  0  0  0  0  0  0
    0.6688   -0.8668   11.3773 O   0  0  0  0  0  0  0  0  0  0  0  0
    3.3371    4.3309    0.7203 C   0  0  0  0  0  0  0  0  0  0  0  0
    4.3186    4.0551    1.4289 O   0  0  0  0  0  0  0  0  0  0  0  0
    3.3918    5.2885   -0.4504 C   0  0  3  0  0  0  0  0  0  0  0  0
    2.1142    5.3661   -1.2595 C   0  0  0  0  0  0  0  0  0  0  0  0
    2.1018    5.7762   -2.4166 O   0  0  0  0  0  0  0  0  0  0  0  0
    3.7493    6.5237    0.0165 F   0  0  0  0  0  0  0  0  0  0  0  0
  1  2  1  0  0  0  0
  2  3  2  0  0  0  0
  3  4  1  0  0  0  0
  3 52  1  0  0  0  0
  4  5  1  0  0  0  0
  5  6  1  1  0  0  0
  5 49  1  0  0  0  0
  6  7  1  0  0  0  0
  7  8  2  0  0  0  0
  7 12  1  0  0  0  0
  8  9  1  0  0  0  0
  8 26  1  0  0  0  0
  9 10  1  0  0  0  0
 10 11  2  0  0  0  0
 10 21  1  0  0  0  0
 11 12  1  0  0  0  0
 11 13  1  0  0  0  0
 13 14  1  0  0  0  0
 13 19  1  0  0  0  0
 14 15  1  0  0  0  0
 15 16  2  0  0  0  0
 15 17  1  0  0  0  0
 17 18  1  0  0  0  0
 18 19  1  0  0  0  0
 18 25  1  0  0  0  0
 19 20  2  0  0  0  0
 20 21  1  0  0  0  0
 20 22  1  0  0  0  0
 22 23  1  0  0  0  0
 22 24  1  0  0  0  0
 23 24  1  0  0  0  0
 26 27  2  0  0  0  0
 26 32  1  0  0  0  0
 27 28  1  0  0  0  0
 28 29  1  0  0  0  0
 28 30  2  0  0  0  0
 30 31  1  0  0  0  0
 31 32  2  0  0  0  0
 31 42  1  0  0  0  0
 32 33  1  0  0  0  0
 33 34  2  0  0  0  0
 34 35  1  0  0  0  0
 34 41  1  0  0  0  0
 35 36  2  0  0  0  0
 35 37  1  0  0  0  0
 37 38  2  0  0  0  0
 39 37  1  6  0  0  0
 39 40  1  0  0  0  0
 39 44  1  0  0  0  0
 40 41  1  0  0  0  0
 41 42  2  0  0  0  0
 42 43  1  0  0  0  0
 44 45  1  6  0  0  0
 44 46  1  0  0  0  0
 44 47  1  0  0  0  0
 46 47  1  0  0  0  0
 47 48  2  0  0  0  0
 49 50  2  0  0  0  0
 49 51  1  0  0  0  0
 51 52  1  0  0  0  0
 51 54  1  0  0  0  0
 52 53  2  0  0  0  0
M  CHG  3  21   1  28   1  32   1
M  END
$$$$