
 OpenBabel09222010323D

 52 60  0  0  1  0  0  0  0  0999 V2000
    7.1590    4.9449   -4.1795 O   0  0  0  0  0  0  0  0  0  0  0  0
    7.2460    3.5807   -4.0817 C   0  0  0  0  0  0  0  0  0  0  0  0
    6.2672    2.8314   -3.5614 C   0  0  0  0  0  0  0  0  0  0  0  0
    5.1097    3.4057   -3.0593 O   0  0  0  0  0  0  0  0  0  0  0  0
    3.9241    2.7382   -3.5000 C   0  0  2  0  0  0  0  0  0  0  0  0
    2.7206    3.4056   -3.0752 O   0  0  0  0  0  0  0  0  0  0  0  0
    2.6167    4.7392   -3.4323 C   0  0  0  0  0  0  0  0  0  0  0  0
    1.9227    5.6483   -2.7182 C   0  0  0  0  0  0  0  0  0  0  0  0
    1.8761    7.0097   -3.0129 O   0  0  0  0  0  0  0  0  0  0  0  0
    2.8289    7.5039   -3.8812 C   0  0  0  0  0  0  0  0  0  0  0  0
    3.5142    6.6756   -4.7353 C   0  0  0  0  0  0  0  0  0  0  0  0
    3.2029    5.2521   -4.6968 C   0  0  0  0  0  0  0  0  0  0  0  0
    3.4163    4.5307   -5.6652 O   0  0  0  0  0  0  0  0  0  0  0  0
    4.4764    7.2268   -5.5741 C   0  0  0  0  0  0  0  0  0  0  0  0
    5.2052    6.4213   -6.4575 N   0  0  0  0  0  0  0  0  0  0  0  0
    6.2326    6.8462   -7.2300 C   0  0  0  0  0  0  0  0  0  0  0  0
    6.8723    6.0796   -7.9416 O   0  0  0  0  0  0  0  0  0  0  0  0
    6.5468    8.1619   -7.1571 N   0  0  0  0  0  0  0  0  0  0  0  0
    5.7852    9.1620   -6.4449 C   0  0  0  0  0  0  0  0  0  0  0  0
    4.7369    8.5972   -5.5313 C   0  0  0  0  0  0  0  0  0  0  0  0
    3.9662    9.3990   -4.6681 C   0  0  0  0  0  0  0  0  0  0  0  0
    3.0154    8.8411   -3.8575 N   0  0  0  0  0  0  0  0  0  0  0  0
    4.1026   10.9058   -4.6370 C   0  0  0  0  0  0  0  0  0  0  0  0
    3.8826   11.5780   -3.3857 O   0  0  0  0  0  0  0  0  0  0  0  0
    5.2152   11.4659   -3.9253 O   0  0  0  0  0  0  0  0  0  0  0  0
    1.1140    5.2762   -1.5407 C   0  0  0  0  0  0  0  0  0  0  0  0
    1.7888    5.3278   -0.3650 N   0  0  0  0  0  0  0  0  0  0  0  0
    1.0982    5.0338    0.7551 C   0  0  0  0  0  0  0  0  0  0  0  0
   -0.2478    4.7121    0.7735 C   0  0  0  0  0  0  0  0  0  0  0  0
   -0.9492    4.6685   -0.4332 C   0  0  0  0  0  0  0  0  0  0  0  0
   -0.2632    4.9383   -1.6405 C   0  0  0  0  0  0  0  0  0  0  0  0
   -1.0004    4.8456   -2.8461 C   0  0  0  0  0  0  0  0  0  0  0  0
   -2.3648    4.5169   -2.8397 C   0  0  0  0  0  0  0  0  0  0  0  0
   -3.0386    4.3063   -1.6454 C   0  0  0  0  0  0  0  0  0  0  0  0
   -2.3249    4.3624   -0.4488 C   0  0  0  0  0  0  0  0  0  0  0  0
   -4.3705    4.0270   -1.5371 O   0  0  0  0  0  0  0  0  0  0  0  0
   -5.1879    4.2718   -2.6896 C   0  0  2  0  0  0  0  0  0  0  0  0
   -4.5387    3.9639   -4.0169 C   0  0  0  0  0  0  0  0  0  0  0  0
   -5.1235    3.4932   -4.9818 O   0  0  0  0  0  0  0  0  0  0  0  0
   -3.0876    4.3653   -4.1069 C   0  0  0  0  0  0  0  0  0  0  0  0
   -2.5511    4.5515   -5.1873 O   0  0  0  0  0  0  0  0  0  0  0  0
   -5.7348    5.6689   -2.6630 C   0  0  1  0  0  0  0  0  0  0  0  0
   -4.7800    6.7526   -2.6121 O   0  0  0  0  0  0  0  0  0  0  0  0
   -6.8495    5.9319   -3.5247 O   0  0  0  0  0  0  0  0  0  0  0  0
   -7.0911    5.9146   -2.1939 C   0  0  0  0  0  0  0  0  0  0  0  0
   -7.8609    5.2582   -1.5594 O   0  0  0  0  0  0  0  0  0  0  0  0
    3.9113    1.3201   -2.9547 C   0  0  0  0  0  0  0  0  0  0  0  0
    2.9826    0.7685   -2.3826 O   0  0  0  0  0  0  0  0  0  0  0  0
    5.1930    0.5772   -3.2433 C   0  0  0  0  0  0  0  0  0  0  0  0
    5.1922   -0.6432   -3.3044 O   0  0  0  0  0  0  0  0  0  0  0  0
    6.4609    1.3551   -3.5261 C   0  0  0  0  0  0  0  0  0  0  0  0
    7.5273    0.7981   -3.7301 O   0  0  0  0  0  0  0  0  0  0  0  0
  1  2  1  0  0  0  0
  2  3  2  0  0  0  0
  3  4  1  0  0  0  0
  3 51  1  0  0  0  0
  4  5  1  0  0  0  0
  5  6  1  1  0  0  0
  5 47  1  0  0  0  0
  6  7  1  0  0  0  0
  7  8  2  0  0  0  0
  7 12  1  0  0  0  0
  8  9  1  0  0  0  0
  8 26  1  0  0  0  0
  9 10  1  0  0  0  0
 10 11  2  0  0  0  0
 10 22  1  0  0  0  0
 11 12  1  0  0  0  0
 11 14  1  0  0  0  0
 12 13  2  0  0  0  0
 14 15  1  0  0  0  0
 14 20  2  0  0  0  0
 15 16  1  0  0  0  0
 16 17  2  0  0  0  0
 16 18  1  0  0  0  0
 18 19  1  0  0  0  0
 19 20  1  0  0  0  0
 20 21  1  0  0  0  0
 21 22  2  0  0  0  0
 21 23  1  0  0  0  0
 23 24  1  0  0  0  0
 23 25  1  0  0  0  0
 24 25  1  0  0  0  0
 26 27  2  0  0  0  0
 26 31  1  0  0  0  0
 27 28  1  0  0  0  0
 28 29  2  0  0  0  0
 29 30  1  0  0  0  0
 30 31  2  0  0  0  0
 30 35  1  0  0  0  0
 31 32  1  0  0  0  0
 32 33  2  0  0  0  0
 33 34  1  0  0  0  0
 33 40  1  0  0  0  0
 34 35  2  0  0  0  0
 34 36  1  0  0  0  0
 37 36  1  1  0  0  0
 37 38  1  0  0  0  0
 37 42  1  0  0  0  0
 38 39  2  0  0  0  0
 38 40  1  0  0  0  0
 40 41  2  0  0  0  0
 42 43  1  1  0  0  0
 42 44  1  0  0  0  0
 42 45  1  0  0  0  0
 44 45  1  0  0  0  0
 45 46  2  0  0  0  0
 47 48  2  0  0  0  0
 47 49  1  0  0  0  0
 49 50  2  0  0  0  0
 49 51  1  0  0  0  0
 51 52  2  0  0  0  0
M  END
$$$$