
 OpenBabel10232009493D

 77 89  0  0  1  0  0  0  0  0999 V2000
    1.7788   -0.6652   -3.0273 O   0  0  0  0  0  0  0  0  0  0  0  0
    1.7708   -0.2648   -1.6357 C   0  0  3  0  0  0  0  0  0  0  0  0
    2.5349    1.0694   -1.4769 C   0  0  3  0  0  0  0  0  0  0  0  0
    3.9813    0.9115   -1.5945 O   0  0  0  0  0  0  0  0  0  0  0  0
    4.5766   -0.2527   -1.2001 C   0  0  0  0  0  0  0  0  0  0  0  0
    3.8872   -1.3325   -0.7070 C   0  0  0  0  0  0  0  0  0  0  0  0
    2.3892   -1.4216   -0.8279 C   0  0  3  0  0  0  0  0  0  0  0  0
    2.1009   -2.6845   -1.4517 O   0  0  0  0  0  0  0  0  0  0  0  0
    4.6005   -2.3860   -0.0923 C   0  0  0  0  0  0  0  0  0  0  0  0
    6.0186   -2.4722   -0.1256 C   0  0  0  0  0  0  0  0  0  0  0  0
    6.7067   -1.5077   -0.8622 C   0  0  0  0  0  0  0  0  0  0  0  0
    5.9779   -0.3547   -1.3192 C   0  0  0  0  0  0  0  0  0  0  0  0
    6.6479    0.6577   -1.8754 F   0  0  0  0  0  0  0  0  0  0  0  0
    8.0883   -1.7527   -1.0944 C   0  0  0  0  0  0  0  0  0  0  0  0
    9.1285   -0.6919   -1.9802 Cl  0  0  0  0  0  0  0  0  0  0  0  0
    8.7225   -2.9299   -0.6281 C   0  0  0  0  0  0  0  0  0  0  0  0
    8.0942   -3.8415    0.2222 C   0  0  0  0  0  0  0  0  0  0  0  0
    6.7420   -3.5270    0.5317 C   0  0  0  0  0  0  0  0  0  0  0  0
    6.0088   -4.2939    1.9170 Cl  0  0  0  0  0  0  0  0  0  0  0  0
    8.8528   -5.0390    0.7627 C   0  0  0  0  0  0  0  0  0  0  0  0
   10.2327   -4.9219    1.1035 C   0  0  0  0  0  0  0  0  0  0  0  0
   11.0647   -6.0263    1.5646 C   0  0  0  0  0  0  0  0  0  0  0  0
   12.5855   -6.1935    1.7497 C   0  0  0  0  0  0  0  0  0  0  0  0
   13.0777   -7.3978    2.2852 C   0  0  0  0  0  0  0  0  0  0  0  0
   14.4405   -7.7770    2.1977 N   0  0  0  0  0  0  0  0  0  0  0  0
   12.1361   -8.3152    2.7280 C   0  0  0  0  0  0  0  0  0  0  0  0
   10.8181   -8.1721    2.5814 N   0  0  0  0  0  0  0  0  0  0  0  0
   10.2745   -7.1340    1.9527 N   0  3  0  0  0  0  0  0  0  0  0  0
    8.9232   -7.2346    1.6786 N   0  3  0  0  0  0  0  0  0  0  0  0
    8.2724   -6.3193    0.9187 C   0  0  0  0  0  0  0  0  0  0  0  0
    7.0083   -6.7641    0.2136 C   0  0  0  0  0  0  0  0  0  0  0  0
    8.0413   -8.5729    2.3270 Cl  0  0  0  0  0  0  0  0  0  0  0  0
   13.7408   -5.1377    1.3100 N   0  3  0  0  0  0  0  0  0  0  0  0
   14.9614   -4.9556    2.0278 N   0  3  0  0  0  0  0  0  0  0  0  0
   15.1317   -5.4308    3.6844 Cl  0  0  0  0  0  0  0  0  0  0  0  0
   16.0057   -4.1624    1.5526 C   0  0  0  0  0  0  0  0  0  0  0  0
   15.9524   -3.3721    0.3709 C   0  0  0  0  0  0  0  0  0  0  0  0
   14.7618   -3.5006   -0.3366 C   0  0  0  0  0  0  0  0  0  0  0  0
   13.6642   -4.4089    0.1235 C   0  0  0  0  0  0  0  0  0  0  0  0
   12.5380   -4.5700   -0.7066 N   0  0  0  0  0  0  0  0  0  0  0  0
   14.6588   -2.7603   -1.4466 N   0  0  0  0  0  0  0  0  0  0  0  0
   15.5798   -1.8872   -1.9314 N   0  3  0  0  0  0  0  0  0  0  0  0
   16.7844   -1.6743   -1.2952 C   0  0  0  0  0  0  0  0  0  0  0  0
   16.9597   -2.4629   -0.1258 N   0  3  0  0  0  0  0  0  0  0  0  0
   18.1459   -2.3335    0.5625 N   0  0  0  0  0  0  0  0  0  0  0  0
   19.1284   -1.4836    0.1578 N   0  3  0  0  0  0  0  0  0  0  0  0
   20.4189   -1.3786    0.9332 C   0  0  0  0  0  0  0  0  0  0  0  0
   18.9509   -0.7202   -0.9292 C   0  0  0  0  0  0  0  0  0  0  0  0
   17.8050   -0.8049   -1.6423 N   0  3  0  0  0  0  0  0  0  0  0  0
   17.7478    0.2820   -2.9720 Cl  0  0  0  0  0  0  0  0  0  0  0  0
   15.0870   -1.1341   -3.3894 Cl  0  0  0  0  0  0  0  0  0  0  0  0
    2.1592    1.9688   -0.2404 C   0  0  3  0  0  0  0  0  0  0  0  0
    2.3218    1.2162    1.0884 C   0  0  0  0  0  0  0  0  0  0  0  0
    2.0135    2.0899    2.2971 C   0  0  0  0  0  0  0  0  0  0  0  0
    0.6537    2.7141    2.2091 C   0  0  0  0  0  0  0  0  0  0  0  0
    0.0895    3.0186    0.9803 C   0  0  0  0  0  0  0  0  0  0  0  0
    0.7256    2.6122   -0.3486 C   0  0  3  0  0  0  0  0  0  0  0  0
    0.7119    3.8599   -1.2771 C   0  0  3  0  0  0  0  0  0  0  0  0
    1.7036    4.7081   -0.8652 F   0  0  0  0  0  0  0  0  0  0  0  0
   -0.6100    4.6543   -1.2948 C   0  0  0  0  0  0  0  0  0  0  0  0
   -1.6964    3.9960   -0.4369 C   0  0  3  0  0  0  0  0  0  0  0  0
   -1.1052    3.7758    0.9430 C   0  0  0  0  0  0  0  0  0  0  0  0
   -1.6717    4.3407    2.1190 C   0  0  0  0  0  0  0  0  0  0  0  0
   -1.2148    3.8705    3.3844 C   0  0  0  0  0  0  0  0  0  0  0  0
   -0.0319    3.0829    3.3792 C   0  0  0  0  0  0  0  0  0  0  0  0
   -1.8802    4.1514    4.7042 C   0  0  0  0  0  0  0  0  0  0  0  0
   -1.1296    4.2920    5.8943 C   0  0  0  0  0  0  0  0  0  0  0  0
   -1.7522    4.4990    7.1308 C   0  0  0  0  0  0  0  0  0  0  0  0
   -1.0410    4.5117    8.2943 O   0  0  0  0  0  0  0  0  0  0  0  0
   -3.1231    4.6735    7.2228 C   0  0  0  0  0  0  0  0  0  0  0  0
   -3.8920    4.5387    6.0766 C   0  0  0  0  0  0  0  0  0  0  0  0
   -3.2792    4.2176    4.8620 C   0  0  0  0  0  0  0  0  0  0  0  0
   -4.0977    3.9012    3.8487 F   0  0  0  0  0  0  0  0  0  0  0  0
   -2.6865    5.4806    1.9547 C   0  0  3  0  0  0  0  0  0  0  0  0
   -2.9172    5.9530    0.5103 C   0  0  0  0  0  0  0  0  0  0  0  0
   -3.0183    4.7601   -0.4185 C   0  0  0  0  0  0  0  0  0  0  0  0
   -2.1719    6.9285    2.8889 Cl  0  0  0  0  0  0  0  0  0  0  0  0
  1  2  1  0  0  0  0
  2  3  1  0  0  0  0
  2  7  1  0  0  0  0
  3  4  1  0  0  0  0
  3 52  1  0  0  0  0
  4  5  1  0  0  0  0
  5  6  2  0  0  0  0
  5 12  1  0  0  0  0
  6  7  1  0  0  0  0
  6  9  1  0  0  0  0
  7  8  1  0  0  0  0
  9 10  2  0  0  0  0
 10 11  1  0  0  0  0
 10 18  1  0  0  0  0
 11 12  2  0  0  0  0
 11 14  1  0  0  0  0
 12 13  1  0  0  0  0
 14 15  1  0  0  0  0
 14 16  2  0  0  0  0
 16 17  1  0  0  0  0
 17 18  2  0  0  0  0
 17 20  1  0  0  0  0
 18 19  1  0  0  0  0
 20 21  2  0  0  0  0
 20 30  1  0  0  0  0
 21 22  1  0  0  0  0
 22 23  2  0  0  0  0
 22 28  1  0  0  0  0
 23 24  1  0  0  0  0
 23 33  1  0  0  0  0
 24 25  1  0  0  0  0
 24 26  2  0  0  0  0
 26 27  1  0  0  0  0
 27 28  2  0  0  0  0
 28 29  1  0  0  0  0
 29 30  2  0  0  0  0
 29 32  1  0  0  0  0
 30 31  1  0  0  0  0
 33 34  2  0  0  0  0
 33 39  1  0  0  0  0
 34 35  1  0  0  0  0
 34 36  1  0  0  0  0
 36 37  2  0  0  0  0
 37 38  1  0  0  0  0
 37 44  1  0  0  0  0
 38 39  2  0  0  0  0
 38 41  1  0  0  0  0
 39 40  1  0  0  0  0
 41 42  2  0  0  0  0
 42 43  1  0  0  0  0
 42 51  1  0  0  0  0
 43 44  2  0  0  0  0
 43 49  1  0  0  0  0
 44 45  1  0  0  0  0
 45 46  2  0  0  0  0
 46 47  1  0  0  0  0
 46 48  1  0  0  0  0
 48 49  2  0  0  0  0
 49 50  1  0  0  0  0
 52 53  1  0  0  0  0
 52 57  1  0  0  0  0
 53 54  1  0  0  0  0
 54 55  1  0  0  0  0
 55 56  2  0  0  0  0
 55 65  1  0  0  0  0
 56 57  1  0  0  0  0
 56 62  1  0  0  0  0
 57 58  1  0  0  0  0
 58 59  1  0  0  0  0
 58 60  1  0  0  0  0
 60 61  1  0  0  0  0
 61 62  1  0  0  0  0
 61 76  1  0  0  0  0
 62 63  2  0  0  0  0
 63 64  1  0  0  0  0
 63 74  1  0  0  0  0
 64 65  2  0  0  0  0
 64 66  1  0  0  0  0
 66 67  2  0  0  0  0
 66 72  1  0  0  0  0
 67 68  1  0  0  0  0
 68 69  1  0  0  0  0
 68 70  2  0  0  0  0
 70 71  1  0  0  0  0
 71 72  2  0  0  0  0
 72 73  1  0  0  0  0
 74 75  1  0  0  0  0
 74 77  1  0  0  0  0
 75 76  1  0  0  0  0
M  CHG  8  28   1  29   1  33   1  34   1  42   1  44   1  46   1  49   1
M  END
$$$$