
 OpenBabel11222001363D

 54 63  0  0  1  0  0  0  0  0999 V2000
    4.5023    4.1741    8.0528 O   0  0  0  0  0  0  0  0  0  0  0  0
    3.9426    4.9275    7.0504 C   0  0  0  0  0  0  0  0  0  0  0  0
    3.4653    4.3920    5.9185 C   0  0  0  0  0  0  0  0  0  0  0  0
    3.5450    3.0209    5.6851 O   0  0  0  0  0  0  0  0  0  0  0  0
    2.4214    2.5010    4.9466 C   0  0  2  0  0  0  0  0  0  0  0  0
    2.4235    1.0473    4.9440 O   0  0  0  0  0  0  0  0  0  0  0  0
    2.4721    0.4096    6.1834 C   0  0  0  0  0  0  0  0  0  0  0  0
    2.9151   -0.8683    6.3655 C   0  0  0  0  0  0  0  0  0  0  0  0
    2.9331   -1.4313    7.6873 O   0  0  0  0  0  0  0  0  0  0  0  0
    2.9436   -0.5658    8.8047 C   0  0  0  0  0  0  0  0  0  0  0  0
    2.5646    0.7103    8.6511 C   0  0  0  0  0  0  0  0  0  0  0  0
    1.9463    1.1747    7.3816 C   0  0  0  0  0  0  0  0  0  0  0  0
    2.8393    1.7536    9.6883 C   0  0  3  0  0  0  0  0  0  0  0  0
    1.6530    2.4194   10.0408 O   0  0  0  0  0  0  0  0  0  0  0  0
    1.8579    3.5239   10.8233 C   0  0  0  0  0  0  0  0  0  0  0  0
    1.0879    4.4550   10.8287 O   0  0  0  0  0  0  0  0  0  0  0  0
    3.0269    3.5151   11.5222 O   0  0  0  0  0  0  0  0  0  0  0  0
    3.6592    2.2940   11.8916 C   0  0  3  0  0  0  0  0  0  0  0  0
    3.3823    1.1868   10.9326 C   0  0  0  0  0  0  0  0  0  0  0  0
    3.6005   -0.1363   11.0955 C   0  0  0  0  0  0  0  0  0  0  0  0
    3.3712   -1.0225   10.0396 O   0  3  0  0  0  0  0  0  0  0  0  0
    4.1367   -0.7453   12.3386 C   0  0  0  0  0  0  0  0  0  0  0  0
    3.7517   -2.0792   12.7089 O   0  0  0  0  0  0  0  0  0  0  0  0
    5.0940   -1.8135   12.2615 O   0  0  0  0  0  0  0  0  0  0  0  0
    5.0606    2.4838   11.7978 O   0  0  0  0  0  0  0  0  0  0  0  0
    3.3279   -1.8639    5.2922 C   0  0  0  0  0  0  0  0  0  0  0  0
    2.9055   -3.1903    5.4833 C   0  0  0  0  0  0  0  0  0  0  0  0
    3.2045   -4.1562    4.6046 N   0  3  0  0  0  0  0  0  0  0  0  0
    2.7929   -5.4184    4.8468 F   0  0  0  0  0  0  0  0  0  0  0  0
    3.8856   -3.9207    3.4996 N   0  0  0  0  0  0  0  0  0  0  0  0
    4.3121   -2.6855    3.2231 C   0  0  0  0  0  0  0  0  0  0  0  0
    4.0933   -1.6015    4.1054 C   0  0  0  0  0  0  0  0  0  0  0  0
    4.6564   -0.3446    3.7168 C   0  0  0  0  0  0  0  0  0  0  0  0
    5.2726   -0.1287    2.4682 C   0  0  0  0  0  0  0  0  0  0  0  0
    5.7028    1.2088    2.0136 C   0  0  0  0  0  0  0  0  0  0  0  0
    5.8867    2.2575    2.7375 N   0  0  0  0  0  0  0  0  0  0  0  0
    6.1010    1.3229    0.5783 C   0  0  0  0  0  0  0  0  0  0  0  0
    5.9921    2.4336   -0.0906 O   0  3  0  0  0  0  0  0  0  0  0  0
    6.5316    2.5790   -1.3825 O   0  3  0  0  0  0  0  0  0  0  0  0
    6.8923    1.5258   -2.0450 C   0  0  0  0  0  0  0  0  0  0  0  0
    7.1288    0.2117   -1.3658 C   0  0  2  0  0  0  0  0  0  0  0  0
    6.8033    0.1026    0.0834 C   0  0  2  0  0  0  0  0  0  0  0  0
    6.0345   -1.0851    0.3527 O   0  0  0  0  0  0  0  0  0  0  0  0
    5.4570   -1.1968    1.6021 C   0  0  0  0  0  0  0  0  0  0  0  0
    4.9921   -2.4580    2.0106 C   0  0  0  0  0  0  0  0  0  0  0  0
    5.1989   -3.4988    1.1879 F   0  0  0  0  0  0  0  0  0  0  0  0
    8.2377   -0.5504   -1.8451 O   0  0  0  0  0  0  0  0  0  0  0  0
    6.0688    0.4501   -2.2247 O   0  0  0  0  0  0  0  0  0  0  0  0
    2.6022    3.0689    3.5516 C   0  0  0  0  0  0  0  0  0  0  0  0
    2.8552    2.4174    2.5431 O   0  0  0  0  0  0  0  0  0  0  0  0
    2.5942    4.5850    3.5643 C   0  0  0  0  0  0  0  0  0  0  0  0
    2.4084    5.1865    2.5219 O   0  0  0  0  0  0  0  0  0  0  0  0
    2.8884    5.3000    4.8801 C   0  0  0  0  0  0  0  0  0  0  0  0
    2.6563    6.4798    5.0508 O   0  0  0  0  0  0  0  0  0  0  0  0
  1  2  1  0  0  0  0
  2  3  2  0  0  0  0
  3  4  1  0  0  0  0
  3 53  1  0  0  0  0
  4  5  1  0  0  0  0
  5  6  1  6  0  0  0
  5 49  1  0  0  0  0
  6  7  1  0  0  0  0
  7  8  2  0  0  0  0
  7 12  1  0  0  0  0
  8  9  1  0  0  0  0
  8 26  1  0  0  0  0
  9 10  1  0  0  0  0
 10 11  2  0  0  0  0
 10 21  1  0  0  0  0
 11 12  1  0  0  0  0
 11 13  1  0  0  0  0
 13 14  1  0  0  0  0
 13 19  1  0  0  0  0
 14 15  1  0  0  0  0
 15 16  2  0  0  0  0
 15 17  1  0  0  0  0
 17 18  1  0  0  0  0
 18 19  1  0  0  0  0
 18 25  1  0  0  0  0
 19 20  2  0  0  0  0
 20 21  1  0  0  0  0
 20 22  1  0  0  0  0
 22 23  1  0  0  0  0
 22 24  1  0  0  0  0
 23 24  1  0  0  0  0
 26 27  2  0  0  0  0
 26 32  1  0  0  0  0
 27 28  1  0  0  0  0
 28 30  2  0  0  0  0
 28 29  1  0  0  0  0
 30 31  1  0  0  0  0
 31 32  2  0  0  0  0
 31 45  1  0  0  0  0
 32 33  1  0  0  0  0
 33 34  2  0  0  0  0
 34 35  1  0  0  0  0
 34 44  1  0  0  0  0
 35 37  1  0  0  0  0
 35 36  2  0  0  0  0
 37 38  2  0  0  0  0
 38 39  1  0  0  0  0
 39 40  2  0  0  0  0
 40 41  1  0  0  0  0
 40 48  1  0  0  0  0
 41 42  1  0  0  0  0
 41 48  1  0  0  0  0
 41 47  1  6  0  0  0
 42 37  1  6  0  0  0
 42 43  1  0  0  0  0
 43 44  1  0  0  0  0
 44 45  2  0  0  0  0
 45 46  1  0  0  0  0
 49 50  2  0  0  0  0
 49 51  1  0  0  0  0
 51 52  2  0  0  0  0
 51 53  1  0  0  0  0
 53 54  2  0  0  0  0
M  CHG  4  21   1  28   1  38   1  39   1
M  END
$$$$