
 OpenBabel11252023153D

 53 62  0  0  1  0  0  0  0  0999 V2000
   -9.2454  -11.0204   -0.4569 O   0  0  0  0  0  0  0  0  0  0  0  0
   -8.6063  -11.2244   -1.6527 C   0  0  0  0  0  0  0  0  0  0  0  0
   -7.2876  -11.0790   -1.8058 C   0  0  0  0  0  0  0  0  0  0  0  0
   -6.4673  -10.6556   -0.7633 O   0  0  0  0  0  0  0  0  0  0  0  0
   -5.3888  -11.5561   -0.5114 C   0  0  2  0  0  0  0  0  0  0  0  0
   -4.4816  -10.9495    0.4775 O   0  0  0  0  0  0  0  0  0  0  0  0
   -4.8498  -10.9274    1.8305 C   0  0  0  0  0  0  0  0  0  0  0  0
   -4.1478  -10.2452    2.7841 C   0  0  0  0  0  0  0  0  0  0  0  0
   -4.5786  -10.3057    4.1684 O   0  0  0  0  0  0  0  0  0  0  0  0
   -5.7153  -11.0706    4.5738 C   0  0  0  0  0  0  0  0  0  0  0  0
   -6.4542  -11.7018    3.6506 C   0  0  0  0  0  0  0  0  0  0  0  0
   -6.1004  -11.7068    2.2025 C   0  0  0  0  0  0  0  0  0  0  0  0
   -7.7036  -12.4835    3.9900 C   0  0  3  0  0  0  0  0  0  0  0  0
   -7.4986  -13.8098    3.5299 O   0  0  0  0  0  0  0  0  0  0  0  0
   -8.5406  -14.6465    3.7064 C   0  0  0  0  0  0  0  0  0  0  0  0
   -8.6575  -15.6929    2.9885 N   0  0  0  0  0  0  0  0  0  0  0  0
   -9.4454  -14.3209    4.6446 O   0  0  0  0  0  0  0  0  0  0  0  0
   -9.1309  -13.4459    5.7395 C   0  0  0  0  0  0  0  0  0  0  0  0
   -7.9462  -12.5665    5.4502 C   0  0  0  0  0  0  0  0  0  0  0  0
   -7.1431  -11.9570    6.3508 C   0  0  0  0  0  0  0  0  0  0  0  0
   -6.0650  -11.1669    5.9228 O   0  3  0  0  0  0  0  0  0  0  0  0
   -7.3170  -12.0607    7.8291 C   0  0  0  0  0  0  0  0  0  0  0  0
   -6.1672  -11.9719    8.6898 O   0  0  0  0  0  0  0  0  0  0  0  0
   -7.1332  -10.9056    8.6631 O   0  0  0  0  0  0  0  0  0  0  0  0
   -2.9722   -9.2471    2.5462 C   0  0  0  0  0  0  0  0  0  0  0  0
   -2.8606   -8.1774    3.4644 C   0  0  0  0  0  0  0  0  0  0  0  0
   -2.0517   -7.1407    3.2226 N   0  3  0  0  0  0  0  0  0  0  0  0
   -1.9532   -6.1486    4.1335 F   0  0  0  0  0  0  0  0  0  0  0  0
   -1.3940   -7.0171    2.0955 N   0  0  0  0  0  0  0  0  0  0  0  0
   -1.3956   -8.0350    1.2184 C   0  0  0  0  0  0  0  0  0  0  0  0
   -2.0939   -9.2244    1.4660 N   0  3  0  0  0  0  0  0  0  0  0  0
   -1.8065  -10.3035    0.6854 C   0  0  0  0  0  0  0  0  0  0  0  0
   -1.0616  -10.1933   -0.4892 C   0  0  0  0  0  0  0  0  0  0  0  0
   -0.4492   -9.0054   -0.8183 C   0  0  0  0  0  0  0  0  0  0  0  0
   -0.6231   -7.9021    0.0267 C   0  0  0  0  0  0  0  0  0  0  0  0
    0.1904   -6.7673   -0.1977 N   0  0  0  0  0  0  0  0  0  0  0  0
    0.3854   -8.8774   -1.9117 O   0  0  0  0  0  0  0  0  0  0  0  0
    0.8770  -10.1405   -2.4533 C   0  0  1  0  0  0  0  0  0  0  0  0
   -0.1447  -11.1715   -2.6528 C   0  0  0  0  0  0  0  0  0  0  0  0
   -0.3839  -11.7785   -3.6735 O   0  0  0  0  0  0  0  0  0  0  0  0
   -0.8680  -11.3723   -1.3336 C   0  0  0  0  0  0  0  0  0  0  0  0
   -1.2058  -12.4526   -0.8910 O   0  0  0  0  0  0  0  0  0  0  0  0
    1.9915  -10.0981   -3.3023 O   0  0  0  0  0  0  0  0  0  0  0  0
    2.1937  -10.6886   -1.9842 C   0  0  1  0  0  0  0  0  0  0  0  0
    2.6289   -9.8120   -0.8976 O   0  0  0  0  0  0  0  0  0  0  0  0
    3.5526  -10.4432   -1.5911 C   0  0  0  0  0  0  0  0  0  0  0  0
    4.4251  -11.2011   -1.1841 O   0  0  0  0  0  0  0  0  0  0  0  0
   -4.6276  -11.9760   -1.7731 C   0  0  0  0  0  0  0  0  0  0  0  0
   -3.7105  -12.7740   -1.8084 O   0  0  0  0  0  0  0  0  0  0  0  0
   -5.1778  -11.3470   -3.0157 C   0  0  0  0  0  0  0  0  0  0  0  0
   -4.4690  -10.6233   -3.6901 O   0  0  0  0  0  0  0  0  0  0  0  0
   -6.6809  -11.3980   -3.1312 C   0  0  0  0  0  0  0  0  0  0  0  0
   -7.2671  -11.7565   -4.1290 O   0  0  0  0  0  0  0  0  0  0  0  0
  1  2  1  0  0  0  0
  2  3  2  0  0  0  0
  3  4  1  0  0  0  0
  3 52  1  0  0  0  0
  4  5  1  0  0  0  0
  5  6  1  1  0  0  0
  5 48  1  0  0  0  0
  6  7  1  0  0  0  0
  7  8  2  0  0  0  0
  7 12  1  0  0  0  0
  8  9  1  0  0  0  0
  8 25  1  0  0  0  0
  9 10  1  0  0  0  0
 10 11  2  0  0  0  0
 10 21  1  0  0  0  0
 11 12  1  0  0  0  0
 11 13  1  0  0  0  0
 13 14  1  0  0  0  0
 13 19  1  0  0  0  0
 14 15  1  0  0  0  0
 15 16  2  0  0  0  0
 15 17  1  0  0  0  0
 17 18  1  0  0  0  0
 18 19  1  0  0  0  0
 19 20  2  0  0  0  0
 20 21  1  0  0  0  0
 20 22  1  0  0  0  0
 22 23  1  0  0  0  0
 22 24  1  0  0  0  0
 23 24  1  0  0  0  0
 25 26  2  0  0  0  0
 25 31  1  0  0  0  0
 26 27  1  0  0  0  0
 27 28  1  0  0  0  0
 27 29  2  0  0  0  0
 29 30  1  0  0  0  0
 30 31  2  0  0  0  0
 30 35  1  0  0  0  0
 31 32  1  0  0  0  0
 32 33  2  0  0  0  0
 33 34  1  0  0  0  0
 33 41  1  0  0  0  0
 34 35  2  0  0  0  0
 34 37  1  0  0  0  0
 35 36  1  0  0  0  0
 38 37  1  1  0  0  0
 38 39  1  0  0  0  0
 38 43  1  0  0  0  0
 38 44  1  0  0  0  0
 39 40  2  0  0  0  0
 39 41  1  0  0  0  0
 41 42  2  0  0  0  0
 44 43  1  6  0  0  0
 44 45  1  0  0  0  0
 44 46  1  0  0  0  0
 45 46  1  0  0  0  0
 46 47  2  0  0  0  0
 48 49  2  0  0  0  0
 48 50  1  0  0  0  0
 50 51  2  0  0  0  0
 50 52  1  0  0  0  0
 52 53  2  0  0  0  0
M  CHG  3  21   1  27   1  31   1
M  END
$$$$