
 OpenBabel11252023143D

 54 63  0  0  1  0  0  0  0  0999 V2000
   -8.9340  -10.6136   -5.7846 O   0  0  0  0  0  0  0  0  0  0  0  0
   -8.2618   -9.9503   -6.7808 C   0  0  0  0  0  0  0  0  0  0  0  0
   -8.1500   -8.6173   -6.7918 C   0  0  0  0  0  0  0  0  0  0  0  0
   -8.7646   -7.8580   -5.8115 O   0  0  0  0  0  0  0  0  0  0  0  0
   -8.0331   -6.7039   -5.4224 C   0  0  2  0  0  0  0  0  0  0  0  0
   -8.6948   -5.9842   -4.3525 O   0  0  0  0  0  0  0  0  0  0  0  0
   -8.6722   -6.5173   -3.0715 C   0  0  0  0  0  0  0  0  0  0  0  0
   -8.7233   -5.7290   -1.9675 C   0  0  0  0  0  0  0  0  0  0  0  0
   -8.9205   -6.2688   -0.6891 O   0  0  0  0  0  0  0  0  0  0  0  0
   -9.3689   -7.5692   -0.5656 C   0  0  0  0  0  0  0  0  0  0  0  0
   -9.2872   -8.4540   -1.6118 C   0  0  0  0  0  0  0  0  0  0  0  0
   -8.7587   -8.0211   -2.9349 C   0  0  0  0  0  0  0  0  0  0  0  0
   -9.7306   -9.7477   -1.3723 C   0  0  0  0  0  0  0  0  0  0  0  0
   -9.6766  -10.6721   -2.4210 O   0  0  0  0  0  0  0  0  0  0  0  0
   -9.8395  -12.0412   -2.2127 C   0  0  0  0  0  0  0  0  0  0  0  0
   -9.6384  -12.8468   -3.1128 O   0  0  0  0  0  0  0  0  0  0  0  0
  -10.1411  -12.4258   -0.9471 O   0  0  0  0  0  0  0  0  0  0  0  0
  -10.7674  -11.5242   -0.0416 C   0  0  3  0  0  0  0  0  0  0  0  0
  -10.2598  -10.1301   -0.1576 C   0  0  0  0  0  0  0  0  0  0  0  0
  -10.3604   -9.1622    0.8470 C   0  0  0  0  0  0  0  0  0  0  0  0
   -9.9010   -7.8865    0.6340 N   0  0  0  0  0  0  0  0  0  0  0  0
  -10.9913   -9.4874    2.1833 C   0  0  0  0  0  0  0  0  0  0  0  0
  -10.1383  -10.0720    3.1792 O   0  0  0  0  0  0  0  0  0  0  0  0
  -10.6005   -8.7136    3.3267 O   0  0  0  0  0  0  0  0  0  0  0  0
  -12.1642  -11.5013   -0.2745 O   0  0  0  0  0  0  0  0  0  0  0  0
   -8.6967   -4.2267   -1.9363 C   0  0  0  0  0  0  0  0  0  0  0  0
   -9.4811   -3.6047   -0.9634 C   0  0  0  0  0  0  0  0  0  0  0  0
   -9.5820   -2.2738   -0.8990 N   0  3  0  0  0  0  0  0  0  0  0  0
  -10.3010   -1.7193    0.0959 F   0  0  0  0  0  0  0  0  0  0  0  0
   -9.0281   -1.4741   -1.7889 N   0  0  0  0  0  0  0  0  0  0  0  0
   -8.2502   -1.9911   -2.7429 C   0  0  0  0  0  0  0  0  0  0  0  0
   -7.9708   -3.3695   -2.8017 C   0  0  0  0  0  0  0  0  0  0  0  0
   -6.9872   -3.7891   -3.7252 C   0  0  0  0  0  0  0  0  0  0  0  0
   -6.4914   -2.9311   -4.7159 C   0  0  0  0  0  0  0  0  0  0  0  0
   -6.8819   -1.6092   -4.7409 C   0  0  0  0  0  0  0  0  0  0  0  0
   -7.7039   -1.1457   -3.7151 C   0  0  0  0  0  0  0  0  0  0  0  0
   -8.0101    0.1614   -3.6739 F   0  0  0  0  0  0  0  0  0  0  0  0
   -6.4680   -0.7250   -5.6972 O   0  0  0  0  0  0  0  0  0  0  0  0
   -6.0693   -1.3214   -6.9584 C   0  0  1  0  0  0  0  0  0  0  0  0
   -5.2175   -2.5198   -6.8862 C   0  0  0  0  0  0  0  0  0  0  0  0
   -4.2710   -2.7372   -7.6219 O   0  0  0  0  0  0  0  0  0  0  0  0
   -5.6213   -3.4620   -5.7746 C   0  0  0  0  0  0  0  0  0  0  0  0
   -5.2899   -4.6407   -5.7666 O   0  0  0  0  0  0  0  0  0  0  0  0
   -7.0108   -1.2984   -8.0019 O   0  0  0  0  0  0  0  0  0  0  0  0
   -5.8487   -0.4146   -8.1322 C   0  0  1  0  0  0  0  0  0  0  0  0
   -5.9976    0.9773   -7.6310 O   0  0  0  0  0  0  0  0  0  0  0  0
   -6.2796    0.7256   -8.8836 C   0  0  0  0  0  0  0  0  0  0  0  0
   -5.9203    1.2419   -9.9240 O   0  0  0  0  0  0  0  0  0  0  0  0
   -7.9725   -5.7595   -6.6134 C   0  0  0  0  0  0  0  0  0  0  0  0
   -8.2153   -4.5573   -6.5871 O   0  0  0  0  0  0  0  0  0  0  0  0
   -7.5493   -6.4441   -7.8907 C   0  0  0  0  0  0  0  0  0  0  0  0
   -7.3509   -5.7799   -8.8951 O   0  0  0  0  0  0  0  0  0  0  0  0
   -7.4175   -7.9559   -7.9076 C   0  0  0  0  0  0  0  0  0  0  0  0
   -6.7537   -8.5425   -8.7431 O   0  0  0  0  0  0  0  0  0  0  0  0
  1  2  1  0  0  0  0
  2  3  2  0  0  0  0
  3  4  1  0  0  0  0
  3 53  1  0  0  0  0
  4  5  1  0  0  0  0
  5  6  1  1  0  0  0
  5 49  1  0  0  0  0
  6  7  1  0  0  0  0
  7  8  2  0  0  0  0
  7 12  1  0  0  0  0
  8  9  1  0  0  0  0
  8 26  1  0  0  0  0
  9 10  1  0  0  0  0
 10 11  2  0  0  0  0
 10 21  1  0  0  0  0
 11 12  1  0  0  0  0
 11 13  1  0  0  0  0
 13 14  1  0  0  0  0
 13 19  2  0  0  0  0
 14 15  1  0  0  0  0
 15 16  2  0  0  0  0
 15 17  1  0  0  0  0
 17 18  1  0  0  0  0
 18 19  1  0  0  0  0
 18 25  1  0  0  0  0
 19 20  1  0  0  0  0
 20 21  2  0  0  0  0
 20 22  1  0  0  0  0
 22 23  1  0  0  0  0
 22 24  1  0  0  0  0
 23 24  1  0  0  0  0
 26 27  2  0  0  0  0
 26 32  1  0  0  0  0
 27 28  1  0  0  0  0
 28 29  1  0  0  0  0
 28 30  2  0  0  0  0
 30 31  1  0  0  0  0
 31 32  2  0  0  0  0
 31 36  1  0  0  0  0
 32 33  1  0  0  0  0
 33 34  2  0  0  0  0
 34 35  1  0  0  0  0
 34 42  1  0  0  0  0
 35 36  2  0  0  0  0
 35 38  1  0  0  0  0
 36 37  1  0  0  0  0
 39 38  1  1  0  0  0
 39 40  1  0  0  0  0
 39 44  1  0  0  0  0
 39 45  1  0  0  0  0
 40 41  2  0  0  0  0
 40 42  1  0  0  0  0
 42 43  2  0  0  0  0
 45 44  1  1  0  0  0
 45 46  1  0  0  0  0
 45 47  1  0  0  0  0
 46 47  1  0  0  0  0
 47 48  2  0  0  0  0
 49 50  2  0  0  0  0
 49 51  1  0  0  0  0
 51 52  2  0  0  0  0
 51 53  1  0  0  0  0
 53 54  2  0  0  0  0
M  CHG  1  28   1
M  END
$$$$