
 OpenBabel10112019333D

 51 59  0  0  1  0  0  0  0  0999 V2000
   -2.4022    1.7223    7.3131 N   0  0  0  0  0  0  0  0  0  0  0  0
   -2.5416    1.0193    6.1433 C   0  0  0  0  0  0  0  0  0  0  0  0
   -1.6195    0.8671    5.1823 C   0  0  0  0  0  0  0  0  0  0  0  0
   -0.3665    1.4418    5.3392 O   0  0  0  0  0  0  0  0  0  0  0  0
    0.6744    0.9246    4.5048 C   0  0  2  0  0  0  0  0  0  0  0  0
    1.9147    1.5777    4.8001 O   0  0  0  0  0  0  0  0  0  0  0  0
    2.4712    1.2960    6.0511 C   0  0  0  0  0  0  0  0  0  0  0  0
    3.3061    2.1594    6.6766 C   0  0  0  0  0  0  0  0  0  0  0  0
    3.9068    1.8850    7.9069 O   0  0  0  0  0  0  0  0  0  0  0  0
    3.7380    0.6401    8.4908 C   0  0  0  0  0  0  0  0  0  0  0  0
    2.9432   -0.2859    7.9385 C   0  0  0  0  0  0  0  0  0  0  0  0
    2.1899   -0.0539    6.6787 C   0  0  0  0  0  0  0  0  0  0  0  0
    2.8255   -1.6068    8.6120 C   0  0  0  0  0  0  0  0  0  0  0  0
    2.0730   -2.5312    8.1123 N   0  0  0  0  0  0  0  0  0  0  0  0
    1.9978   -3.7539    8.7502 C   0  0  0  0  0  0  0  0  0  0  0  0
    1.2825   -4.6152    8.2555 O   0  0  0  0  0  0  0  0  0  0  0  0
    2.6898   -4.0536    9.9067 N   0  0  0  0  0  0  0  0  0  0  0  0
    3.4423   -3.1479   10.4295 C   0  0  0  0  0  0  0  0  0  0  0  0
    3.6051   -1.8134    9.8518 C   0  0  0  0  0  0  0  0  0  0  0  0
    4.3772   -0.8178   10.3332 C   0  0  0  0  0  0  0  0  0  0  0  0
    4.4271    0.3916    9.6517 N   0  0  0  0  0  0  0  0  0  0  0  0
    5.2152   -0.9102   11.5504 C   0  0  0  0  0  0  0  0  0  0  0  0
    5.0284   -0.0153   12.6598 O   0  0  0  0  0  0  0  0  0  0  0  0
    4.7138   -1.4124   12.7998 O   0  0  0  0  0  0  0  0  0  0  0  0
    3.7276    3.4648    6.1341 C   0  0  0  0  0  0  0  0  0  0  0  0
    4.8887    3.4187    5.4443 N   0  0  0  0  0  0  0  0  0  0  0  0
    5.3494    4.5873    4.9913 C   0  0  0  0  0  0  0  0  0  0  0  0
    4.7716    5.7825    5.1634 N   0  0  0  0  0  0  0  0  0  0  0  0
    3.6262    5.8116    5.8475 C   0  0  0  0  0  0  0  0  0  0  0  0
    3.0366    4.6608    6.3951 C   0  0  0  0  0  0  0  0  0  0  0  0
    1.8439    4.7870    7.1506 C   0  0  0  0  0  0  0  0  0  0  0  0
    1.2268    6.0337    7.2883 C   0  0  0  0  0  0  0  0  0  0  0  0
    1.7808    7.1575    6.6896 C   0  0  0  0  0  0  0  0  0  0  0  0
    2.9943    7.0392    6.0122 C   0  0  0  0  0  0  0  0  0  0  0  0
    1.2133    8.4026    6.7008 O   0  0  0  0  0  0  0  0  0  0  0  0
   -0.1969    8.4465    6.9598 C   0  0  2  0  0  0  0  0  0  0  0  0
   -0.6355    7.5483    8.0909 C   0  0  0  0  0  0  0  0  0  0  0  0
   -1.4359    7.8669    8.9588 O   0  0  0  0  0  0  0  0  0  0  0  0
   -0.0172    6.1681    8.0568 C   0  0  0  0  0  0  0  0  0  0  0  0
   -0.5185    5.2248    8.6473 O   0  0  0  0  0  0  0  0  0  0  0  0
   -0.9839    8.1692    5.7149 C   0  0  1  0  0  0  0  0  0  0  0  0
   -0.7845    6.8750    5.0924 O   0  0  0  0  0  0  0  0  0  0  0  0
   -2.3413    8.6148    5.7719 O   0  0  0  0  0  0  0  0  0  0  0  0
   -1.5528    9.2065    4.8498 C   0  0  0  0  0  0  0  0  0  0  0  0
   -1.6685    9.2435    3.6518 O   0  0  0  0  0  0  0  0  0  0  0  0
    0.2256    1.0728    3.0618 C   0  0  0  0  0  0  0  0  0  0  0  0
    0.7176    1.7628    2.1860 O   0  0  0  0  0  0  0  0  0  0  0  0
   -1.0018    0.2354    2.8179 C   0  0  0  0  0  0  0  0  0  0  0  0
   -1.1226   -0.4005    1.7845 O   0  0  0  0  0  0  0  0  0  0  0  0
   -2.0127    0.1265    3.9433 C   0  0  0  0  0  0  0  0  0  0  0  0
   -3.0378   -0.5231    3.8231 O   0  0  0  0  0  0  0  0  0  0  0  0
  1  2  1  0  0  0  0
  2  3  2  0  0  0  0
  3  4  1  0  0  0  0
  3 50  1  0  0  0  0
  4  5  1  0  0  0  0
  5  6  1  6  0  0  0
  5 46  1  0  0  0  0
  6  7  1  0  0  0  0
  7  8  2  0  0  0  0
  7 12  1  0  0  0  0
  8  9  1  0  0  0  0
  8 25  1  0  0  0  0
  9 10  1  0  0  0  0
 10 11  2  0  0  0  0
 10 21  1  0  0  0  0
 11 12  1  0  0  0  0
 11 13  1  0  0  0  0
 13 14  2  0  0  0  0
 13 19  1  0  0  0  0
 14 15  1  0  0  0  0
 15 16  2  0  0  0  0
 15 17  1  0  0  0  0
 17 18  2  0  0  0  0
 18 19  1  0  0  0  0
 19 20  2  0  0  0  0
 20 21  1  0  0  0  0
 20 22  1  0  0  0  0
 22 23  1  0  0  0  0
 22 24  1  0  0  0  0
 23 24  1  0  0  0  0
 25 26  2  0  0  0  0
 25 30  1  0  0  0  0
 26 27  1  0  0  0  0
 27 28  2  0  0  0  0
 28 29  1  0  0  0  0
 29 30  2  0  0  0  0
 29 34  1  0  0  0  0
 30 31  1  0  0  0  0
 31 32  2  0  0  0  0
 32 33  1  0  0  0  0
 32 39  1  0  0  0  0
 33 34  2  0  0  0  0
 33 35  1  0  0  0  0
 36 35  1  6  0  0  0
 36 37  1  0  0  0  0
 36 41  1  0  0  0  0
 37 38  2  0  0  0  0
 37 39  1  0  0  0  0
 39 40  2  0  0  0  0
 41 42  1  6  0  0  0
 41 43  1  0  0  0  0
 41 44  1  0  0  0  0
 43 44  1  0  0  0  0
 44 45  2  0  0  0  0
 46 47  2  0  0  0  0
 46 48  1  0  0  0  0
 48 49  2  0  0  0  0
 48 50  1  0  0  0  0
 50 51  2  0  0  0  0
M  END
$$$$