
 OpenBabel11152011453D

 52 60  0  0  1  0  0  0  0  0999 V2000
    3.8514    1.3888    7.5865 O   0  0  0  0  0  0  0  0  0  0  0  0
    4.1610    1.6685    6.2774 C   0  0  0  0  0  0  0  0  0  0  0  0
    3.6870    0.9404    5.2593 C   0  0  0  0  0  0  0  0  0  0  0  0
    2.8460   -0.1077    5.5217 O   0  0  0  0  0  0  0  0  0  0  0  0
    2.0532   -0.6459    4.4864 C   0  0  2  0  0  0  0  0  0  0  0  0
    1.3730   -1.8580    4.8861 O   0  0  0  0  0  0  0  0  0  0  0  0
    1.9980   -2.8005    5.6918 C   0  0  0  0  0  0  0  0  0  0  0  0
    1.6950   -4.1093    5.5818 C   0  0  0  0  0  0  0  0  0  0  0  0
    2.1971   -5.0819    6.4454 O   0  0  0  0  0  0  0  0  0  0  0  0
    2.8398   -4.6941    7.6119 C   0  0  0  0  0  0  0  0  0  0  0  0
    3.1647   -3.4107    7.8427 C   0  0  0  0  0  0  0  0  0  0  0  0
    2.8795   -2.3429    6.8292 C   0  0  0  0  0  0  0  0  0  0  0  0
    3.8396   -2.9728    9.1143 C   0  0  3  0  0  0  0  0  0  0  0  0
    2.9975   -2.0434    9.7814 O   0  0  0  0  0  0  0  0  0  0  0  0
    3.4787   -1.5409   10.9528 C   0  0  0  0  0  0  0  0  0  0  0  0
    3.0047   -0.5543   11.4893 O   0  0  0  0  0  0  0  0  0  0  0  0
    4.5569   -2.2039   11.4459 O   0  0  0  0  0  0  0  0  0  0  0  0
    4.5380   -3.6211   11.3653 C   0  0  3  0  0  0  0  0  0  0  0  0
    4.0043   -4.1035   10.0617 C   0  0  0  0  0  0  0  0  0  0  0  0
    3.6531   -5.3746    9.7628 C   0  0  0  0  0  0  0  0  0  0  0  0
    3.1220   -5.6804    8.5216 O   0  3  0  0  0  0  0  0  0  0  0  0
    3.7645   -6.5037   10.7136 C   0  0  0  0  0  0  0  0  0  0  0  0
    2.6716   -6.8493   11.5747 O   0  0  0  0  0  0  0  0  0  0  0  0
    3.0318   -7.7208   10.4859 O   0  0  0  0  0  0  0  0  0  0  0  0
    5.8693   -4.0994   11.4109 O   0  0  0  0  0  0  0  0  0  0  0  0
    0.7447   -4.6533    4.5983 C   0  0  0  0  0  0  0  0  0  0  0  0
   -0.5242   -4.7241    5.0499 N   0  0  0  0  0  0  0  0  0  0  0  0
   -1.4217   -5.3161    4.3171 N   0  0  0  0  0  0  0  0  0  0  0  0
   -1.1128   -5.9297    3.1969 N   0  0  0  0  0  0  0  0  0  0  0  0
    0.1366   -5.8954    2.7214 C   0  0  0  0  0  0  0  0  0  0  0  0
    1.1439   -5.2089    3.3876 C   0  0  0  0  0  0  0  0  0  0  0  0
    2.4441   -5.1492    2.8306 C   0  0  0  0  0  0  0  0  0  0  0  0
    2.7228   -5.7990    1.6257 C   0  0  0  0  0  0  0  0  0  0  0  0
    1.7442   -6.5559    1.0029 C   0  0  0  0  0  0  0  0  0  0  0  0
    0.4596   -6.5873    1.5544 C   0  0  0  0  0  0  0  0  0  0  0  0
    1.9363   -7.3139   -0.1150 O   0  0  0  0  0  0  0  0  0  0  0  0
    3.0982   -7.0403   -0.9034 C   0  0  2  0  0  0  0  0  0  0  0  0
    4.3328   -6.5726   -0.1626 C   0  0  0  0  0  0  0  0  0  0  0  0
    5.4802   -6.8630   -0.4714 O   0  0  0  0  0  0  0  0  0  0  0  0
    4.0593   -5.7012    1.0370 C   0  0  0  0  0  0  0  0  0  0  0  0
    4.9237   -4.9943    1.5315 O   0  0  0  0  0  0  0  0  0  0  0  0
    2.7450   -6.0926   -1.9985 C   0  0  1  0  0  0  0  0  0  0  0  0
    2.2322   -4.8031   -1.5884 O   0  0  0  0  0  0  0  0  0  0  0  0
    3.6477   -6.0850   -3.1050 O   0  0  0  0  0  0  0  0  0  0  0  0
    2.3939   -6.5138   -3.3569 C   0  0  0  0  0  0  0  0  0  0  0  0
    1.5614   -6.0783   -4.1120 O   0  0  0  0  0  0  0  0  0  0  0  0
    2.7845   -0.8647    3.1723 C   0  0  0  0  0  0  0  0  0  0  0  0
    2.6330   -1.8270    2.4321 O   0  0  0  0  0  0  0  0  0  0  0  0
    3.7349    0.2552    2.8264 C   0  0  0  0  0  0  0  0  0  0  0  0
    4.1514    0.3613    1.6833 O   0  0  0  0  0  0  0  0  0  0  0  0
    4.1844    1.2334    3.8915 C   0  0  0  0  0  0  0  0  0  0  0  0
    4.9356    2.1598    3.6359 O   0  0  0  0  0  0  0  0  0  0  0  0
  1  2  1  0  0  0  0
  2  3  2  0  0  0  0
  3  4  1  0  0  0  0
  3 51  1  0  0  0  0
  4  5  1  0  0  0  0
  5  6  1  1  0  0  0
  5 47  1  0  0  0  0
  6  7  1  0  0  0  0
  7  8  2  0  0  0  0
  7 12  1  0  0  0  0
  8  9  1  0  0  0  0
  8 26  1  0  0  0  0
  9 10  1  0  0  0  0
 10 11  2  0  0  0  0
 10 21  1  0  0  0  0
 11 12  1  0  0  0  0
 11 13  1  0  0  0  0
 13 14  1  0  0  0  0
 13 19  1  0  0  0  0
 14 15  1  0  0  0  0
 15 16  2  0  0  0  0
 15 17  1  0  0  0  0
 17 18  1  0  0  0  0
 18 19  1  0  0  0  0
 18 25  1  0  0  0  0
 19 20  2  0  0  0  0
 20 21  1  0  0  0  0
 20 22  1  0  0  0  0
 22 23  1  0  0  0  0
 22 24  1  0  0  0  0
 23 24  1  0  0  0  0
 26 27  2  0  0  0  0
 26 31  1  0  0  0  0
 27 28  1  0  0  0  0
 28 29  2  0  0  0  0
 29 30  1  0  0  0  0
 30 31  2  0  0  0  0
 30 35  1  0  0  0  0
 31 32  1  0  0  0  0
 32 33  2  0  0  0  0
 33 34  1  0  0  0  0
 33 40  1  0  0  0  0
 34 35  2  0  0  0  0
 34 36  1  0  0  0  0
 37 36  1  1  0  0  0
 37 38  1  0  0  0  0
 37 42  1  0  0  0  0
 38 39  2  0  0  0  0
 38 40  1  0  0  0  0
 40 41  2  0  0  0  0
 42 43  1  1  0  0  0
 42 44  1  0  0  0  0
 42 45  1  0  0  0  0
 44 45  1  0  0  0  0
 45 46  2  0  0  0  0
 47 48  2  0  0  0  0
 47 49  1  0  0  0  0
 49 50  2  0  0  0  0
 49 51  1  0  0  0  0
 51 52  2  0  0  0  0
M  CHG  1  21   1
M  END
$$$$