
 OpenBabel10192018043D

 53 61  0  0  1  0  0  0  0  0999 V2000
    8.9273    5.5788    1.9982 C   0  0  0  0  0  0  0  0  0  0  0  0
    8.9680    5.3611    0.5958 O   0  0  0  0  0  0  0  0  0  0  0  0
    7.6248    4.9387    0.2173 O   0  0  0  0  0  0  0  0  0  0  0  0
    7.8028    4.1255   -0.8736 C   0  0  0  0  0  0  0  0  0  0  0  0
    6.8798    3.9623   -1.8310 C   0  0  0  0  0  0  0  0  0  0  0  0
    5.6431    4.5839   -1.7500 O   0  0  0  0  0  0  0  0  0  0  0  0
    4.9960    4.8405   -2.9958 C   0  0  2  0  0  0  0  0  0  0  0  0
    3.7058    5.4384   -2.8068 O   0  0  0  0  0  0  0  0  0  0  0  0
    3.6336    6.8019   -2.5478 C   0  0  0  0  0  0  0  0  0  0  0  0
    2.4413    7.4201   -2.3766 C   0  0  0  0  0  0  0  0  0  0  0  0
    2.3276    8.7988   -2.1660 O   0  0  0  0  0  0  0  0  0  0  0  0
    3.4325    9.6082   -2.3924 C   0  0  0  0  0  0  0  0  0  0  0  0
    4.6527    9.0838   -2.5699 C   0  0  0  0  0  0  0  0  0  0  0  0
    4.9059    7.6212   -2.5303 C   0  0  0  0  0  0  0  0  0  0  0  0
    5.7636    9.9906   -2.9723 C   0  0  0  0  0  0  0  0  0  0  0  0
    6.9437    9.5232   -3.2179 N   0  0  0  0  0  0  0  0  0  0  0  0
    7.9365   10.3872   -3.6389 C   0  0  0  0  0  0  0  0  0  0  0  0
    9.0431    9.9195   -3.8739 O   0  0  0  0  0  0  0  0  0  0  0  0
    7.7401   11.7427   -3.8198 N   0  0  0  0  0  0  0  0  0  0  0  0
    6.5752   12.2353   -3.5762 C   0  0  0  0  0  0  0  0  0  0  0  0
    5.4454   11.4244   -3.1241 C   0  0  0  0  0  0  0  0  0  0  0  0
    4.1953   11.8652   -2.8809 C   0  0  0  0  0  0  0  0  0  0  0  0
    3.2153   10.9585   -2.4985 N   0  0  0  0  0  0  0  0  0  0  0  0
    3.7683   13.2756   -3.0116 C   0  0  0  0  0  0  0  0  0  0  0  0
    2.7360   13.8372   -2.1840 O   0  0  0  0  0  0  0  0  0  0  0  0
    4.1044   14.2579   -2.0199 O   0  0  0  0  0  0  0  0  0  0  0  0
    1.1252    6.7429   -2.4301 C   0  0  0  0  0  0  0  0  0  0  0  0
    0.6938    6.2610   -1.2438 N   0  0  0  0  0  0  0  0  0  0  0  0
   -0.5426    5.7530   -1.2324 C   0  0  0  0  0  0  0  0  0  0  0  0
   -1.3941    5.7198   -2.2659 N   0  0  0  0  0  0  0  0  0  0  0  0
   -0.9620    6.2152   -3.4263 C   0  0  0  0  0  0  0  0  0  0  0  0
    0.3307    6.7356   -3.5975 C   0  0  0  0  0  0  0  0  0  0  0  0
    0.7068    7.2192   -4.8792 C   0  0  0  0  0  0  0  0  0  0  0  0
   -0.2181    7.2442   -5.9313 C   0  0  0  0  0  0  0  0  0  0  0  0
   -1.5145    6.7962   -5.7300 C   0  0  0  0  0  0  0  0  0  0  0  0
   -1.8554    6.2466   -4.4934 C   0  0  0  0  0  0  0  0  0  0  0  0
   -2.5130    6.8512   -6.6613 O   0  0  0  0  0  0  0  0  0  0  0  0
   -2.3192    7.7593   -7.7593 C   0  0  2  0  0  0  0  0  0  0  0  0
   -0.9133    7.7461   -8.3143 C   0  0  0  0  0  0  0  0  0  0  0  0
   -0.6378    7.7469   -9.5048 O   0  0  0  0  0  0  0  0  0  0  0  0
    0.1655    7.7564   -7.2531 C   0  0  0  0  0  0  0  0  0  0  0  0
    1.2857    8.1839   -7.4768 O   0  0  0  0  0  0  0  0  0  0  0  0
   -2.8461    9.1295   -7.4137 C   0  0  1  0  0  0  0  0  0  0  0  0
   -4.2564    9.2070   -7.1117 O   0  0  0  0  0  0  0  0  0  0  0  0
   -2.0279    9.9228   -6.5492 O   0  0  0  0  0  0  0  0  0  0  0  0
   -2.1945   10.3677   -7.8080 C   0  0  0  0  0  0  0  0  0  0  0  0
   -1.3587   10.6446   -8.6450 O   0  0  0  0  0  0  0  0  0  0  0  0
    4.8483    3.5656   -3.7999 C   0  0  0  0  0  0  0  0  0  0  0  0
    3.8252    3.0983   -4.2726 O   0  0  0  0  0  0  0  0  0  0  0  0
    6.1875    2.9288   -4.0361 C   0  0  0  0  0  0  0  0  0  0  0  0
    6.4217    2.3731   -5.0971 O   0  0  0  0  0  0  0  0  0  0  0  0
    7.2607    3.0875   -2.9813 C   0  0  0  0  0  0  0  0  0  0  0  0
    8.3501    2.5513   -3.1040 O   0  0  0  0  0  0  0  0  0  0  0  0
  1  2  1  0  0  0  0
  2  3  1  0  0  0  0
  3  4  1  0  0  0  0
  4  5  2  0  0  0  0
  5  6  1  0  0  0  0
  5 52  1  0  0  0  0
  6  7  1  0  0  0  0
  7  8  1  1  0  0  0
  7 48  1  0  0  0  0
  8  9  1  0  0  0  0
  9 10  2  0  0  0  0
  9 14  1  0  0  0  0
 10 11  1  0  0  0  0
 10 27  1  0  0  0  0
 11 12  1  0  0  0  0
 12 13  2  0  0  0  0
 12 23  1  0  0  0  0
 13 14  1  0  0  0  0
 13 15  1  0  0  0  0
 15 16  2  0  0  0  0
 15 21  1  0  0  0  0
 16 17  1  0  0  0  0
 17 18  2  0  0  0  0
 17 19  1  0  0  0  0
 19 20  2  0  0  0  0
 20 21  1  0  0  0  0
 21 22  2  0  0  0  0
 22 23  1  0  0  0  0
 22 24  1  0  0  0  0
 24 25  1  0  0  0  0
 24 26  1  0  0  0  0
 25 26  1  0  0  0  0
 27 28  2  0  0  0  0
 27 32  1  0  0  0  0
 28 29  1  0  0  0  0
 29 30  2  0  0  0  0
 30 31  1  0  0  0  0
 31 32  2  0  0  0  0
 31 36  1  0  0  0  0
 32 33  1  0  0  0  0
 33 34  2  0  0  0  0
 34 35  1  0  0  0  0
 34 41  1  0  0  0  0
 35 36  2  0  0  0  0
 35 37  1  0  0  0  0
 38 37  1  1  0  0  0
 38 39  1  0  0  0  0
 38 43  1  0  0  0  0
 39 40  2  0  0  0  0
 39 41  1  0  0  0  0
 41 42  2  0  0  0  0
 43 44  1  1  0  0  0
 43 45  1  0  0  0  0
 43 46  1  0  0  0  0
 45 46  1  0  0  0  0
 46 47  2  0  0  0  0
 48 49  2  0  0  0  0
 48 50  1  0  0  0  0
 50 51  2  0  0  0  0
 50 52  1  0  0  0  0
 52 53  2  0  0  0  0
M  END
$$$$