
 OpenBabel11182016353D

 52 60  0  0  1  0  0  0  0  0999 V2000
   -2.0969   -1.5181   -4.4311 O   0  0  0  0  0  0  0  0  0  0  0  0
   -1.4934   -0.5250   -3.7058 C   0  0  0  0  0  0  0  0  0  0  0  0
   -0.3191   -0.7021   -3.0880 C   0  0  0  0  0  0  0  0  0  0  0  0
    0.3101   -1.9319   -3.1291 O   0  0  0  0  0  0  0  0  0  0  0  0
    1.6757   -1.9851   -2.7279 C   0  0  2  0  0  0  0  0  0  0  0  0
    2.1434   -3.3416   -2.6677 O   0  0  0  0  0  0  0  0  0  0  0  0
    2.1107   -4.0616   -3.8563 C   0  0  0  0  0  0  0  0  0  0  0  0
    1.9318   -5.4001   -3.8578 C   0  0  0  0  0  0  0  0  0  0  0  0
    1.9538   -6.1716   -5.0189 O   0  0  0  0  0  0  0  0  0  0  0  0
    2.2350   -5.5572   -6.2336 C   0  0  0  0  0  0  0  0  0  0  0  0
    2.4681   -4.2375   -6.3296 C   0  0  0  0  0  0  0  0  0  0  0  0
    2.3744   -3.3316   -5.1482 C   0  0  0  0  0  0  0  0  0  0  0  0
    2.7865   -3.6013   -7.6589 C   0  0  3  0  0  0  0  0  0  0  0  0
    4.0502   -2.9487   -7.5292 O   0  0  0  0  0  0  0  0  0  0  0  0
    4.8060   -2.6176   -8.6045 C   0  0  0  0  0  0  0  0  0  0  0  0
    5.8227   -1.9473   -8.4771 O   0  0  0  0  0  0  0  0  0  0  0  0
    4.4128   -3.0735   -9.8188 O   0  0  0  0  0  0  0  0  0  0  0  0
    3.2425   -3.8509  -10.0237 C   0  0  3  0  0  0  0  0  0  0  0  0
    2.8469   -4.5609   -8.7923 C   0  0  0  0  0  0  0  0  0  0  0  0
    2.5755   -5.8759   -8.6336 C   0  0  0  0  0  0  0  0  0  0  0  0
    2.2671   -6.3415   -7.3616 N   0  0  0  0  0  0  0  0  0  0  0  0
    2.5773   -6.8735   -9.7289 C   0  0  0  0  0  0  0  0  0  0  0  0
    3.7638   -7.5976  -10.0885 O   0  0  0  0  0  0  0  0  0  0  0  0
    2.6551   -8.2876   -9.4786 O   0  0  0  0  0  0  0  0  0  0  0  0
    2.1773   -2.9977  -10.4081 O   0  0  0  0  0  0  0  0  0  0  0  0
    1.7519   -6.1758   -2.6179 C   0  0  0  0  0  0  0  0  0  0  0  0
    2.8737   -6.6772   -1.9806 C   0  0  0  0  0  0  0  0  0  0  0  0
    2.7986   -7.3700   -0.8347 N   0  0  0  0  0  0  0  0  0  0  0  0
    1.5744   -7.5752   -0.2613 N   0  0  0  0  0  0  0  0  0  0  0  0
    0.4551   -7.1072   -0.8146 C   0  0  0  0  0  0  0  0  0  0  0  0
    0.4988   -6.3924   -2.0366 C   0  0  0  0  0  0  0  0  0  0  0  0
   -0.6445   -5.9300   -2.6134 N   0  0  0  0  0  0  0  0  0  0  0  0
   -1.8002   -6.1511   -1.9420 C   0  0  0  0  0  0  0  0  0  0  0  0
   -1.8329   -6.8194   -0.7379 C   0  0  0  0  0  0  0  0  0  0  0  0
   -0.7143   -7.3204   -0.1844 N   0  0  0  0  0  0  0  0  0  0  0  0
   -2.9656   -7.0518   -0.0120 O   0  0  0  0  0  0  0  0  0  0  0  0
   -4.0051   -6.0919   -0.1917 C   0  0  2  0  0  0  0  0  0  0  0  0
   -4.2685   -5.6878   -1.6256 C   0  0  0  0  0  0  0  0  0  0  0  0
   -5.3619   -5.3205   -2.0360 O   0  0  0  0  0  0  0  0  0  0  0  0
   -3.0576   -5.6811   -2.5313 C   0  0  0  0  0  0  0  0  0  0  0  0
   -3.1594   -5.3145   -3.6920 O   0  0  0  0  0  0  0  0  0  0  0  0
   -3.7721   -4.8860    0.6655 C   0  0  1  0  0  0  0  0  0  0  0  0
   -2.5539   -4.1433    0.4073 O   0  0  0  0  0  0  0  0  0  0  0  0
   -4.9393   -4.0898    0.8794 O   0  0  0  0  0  0  0  0  0  0  0  0
   -4.3935   -4.6588    1.9760 C   0  0  0  0  0  0  0  0  0  0  0  0
   -3.9497   -4.1364    2.9648 O   0  0  0  0  0  0  0  0  0  0  0  0
    1.8400   -1.3533   -1.3588 C   0  0  0  0  0  0  0  0  0  0  0  0
    2.3254   -1.8640   -0.3618 O   0  0  0  0  0  0  0  0  0  0  0  0
    1.3207    0.0579   -1.3354 C   0  0  0  0  0  0  0  0  0  0  0  0
    1.8052    0.8818   -0.5766 O   0  0  0  0  0  0  0  0  0  0  0  0
    0.2109    0.4380   -2.2906 C   0  0  0  0  0  0  0  0  0  0  0  0
   -0.1963    1.5847   -2.3785 O   0  0  0  0  0  0  0  0  0  0  0  0
  1  2  1  0  0  0  0
  2  3  2  0  0  0  0
  3  4  1  0  0  0  0
  3 51  1  0  0  0  0
  4  5  1  0  0  0  0
  5  6  1  1  0  0  0
  5 47  1  0  0  0  0
  6  7  1  0  0  0  0
  7  8  2  0  0  0  0
  7 12  1  0  0  0  0
  8  9  1  0  0  0  0
  8 26  1  0  0  0  0
  9 10  1  0  0  0  0
 10 11  2  0  0  0  0
 10 21  1  0  0  0  0
 11 12  1  0  0  0  0
 11 13  1  0  0  0  0
 13 14  1  0  0  0  0
 13 19  1  0  0  0  0
 14 15  1  0  0  0  0
 15 16  2  0  0  0  0
 15 17  1  0  0  0  0
 17 18  1  0  0  0  0
 18 19  1  0  0  0  0
 18 25  1  0  0  0  0
 19 20  2  0  0  0  0
 20 21  1  0  0  0  0
 20 22  1  0  0  0  0
 22 23  1  0  0  0  0
 22 24  1  0  0  0  0
 23 24  1  0  0  0  0
 26 27  2  0  0  0  0
 26 31  1  0  0  0  0
 27 28  1  0  0  0  0
 28 29  2  0  0  0  0
 29 30  1  0  0  0  0
 30 31  2  0  0  0  0
 30 35  1  0  0  0  0
 31 32  1  0  0  0  0
 32 33  2  0  0  0  0
 33 34  1  0  0  0  0
 33 40  1  0  0  0  0
 34 35  2  0  0  0  0
 34 36  1  0  0  0  0
 37 36  1  6  0  0  0
 37 38  1  0  0  0  0
 37 42  1  0  0  0  0
 38 39  2  0  0  0  0
 38 40  1  0  0  0  0
 40 41  2  0  0  0  0
 42 43  1  6  0  0  0
 42 44  1  0  0  0  0
 42 45  1  0  0  0  0
 44 45  1  0  0  0  0
 45 46  2  0  0  0  0
 47 48  2  0  0  0  0
 47 49  1  0  0  0  0
 49 50  2  0  0  0  0
 49 51  1  0  0  0  0
 51 52  2  0  0  0  0
M  END
$$$$