
 OpenBabel11242001143D

 54 62  0  0  1  0  0  0  0  0999 V2000
    7.5213    2.3110   -5.4973 O   0  0  0  0  0  0  0  0  0  0  0  0
    7.4776    1.0046   -5.0815 C   0  0  0  0  0  0  0  0  0  0  0  0
    6.3967    0.4799   -4.4943 C   0  0  0  0  0  0  0  0  0  0  0  0
    5.2865    1.2706   -4.2448 O   0  0  0  0  0  0  0  0  0  0  0  0
    4.0476    0.5878   -4.4142 C   0  0  2  0  0  0  0  0  0  0  0  0
    2.9339    1.4854   -4.2678 O   0  0  0  0  0  0  0  0  0  0  0  0
    2.9193    2.5781   -5.1263 C   0  0  0  0  0  0  0  0  0  0  0  0
    2.4080    3.7566   -4.7229 C   0  0  0  0  0  0  0  0  0  0  0  0
    2.3187    4.8834   -5.5196 O   0  0  0  0  0  0  0  0  0  0  0  0
    2.7851    4.8215   -6.8145 C   0  0  0  0  0  0  0  0  0  0  0  0
    3.3029    3.6627   -7.3506 C   0  0  0  0  0  0  0  0  0  0  0  0
    3.4205    2.4141   -6.5395 C   0  0  0  0  0  0  0  0  0  0  0  0
    3.7324    3.7290   -8.6702 C   0  0  0  0  0  0  0  0  0  0  0  0
    4.3107    2.5869   -9.2326 O   0  0  0  0  0  0  0  0  0  0  0  0
    4.6171    2.4901  -10.5899 C   0  0  0  0  0  0  0  0  0  0  0  0
    5.0389    1.4438  -11.0645 O   0  0  0  0  0  0  0  0  0  0  0  0
    4.3367    3.5706  -11.3553 O   0  0  0  0  0  0  0  0  0  0  0  0
    4.1802    4.8718  -10.8017 C   0  0  3  0  0  0  0  0  0  0  0  0
    3.6493    4.8876   -9.4128 C   0  0  0  0  0  0  0  0  0  0  0  0
    3.1395    6.0310   -8.7900 C   0  0  0  0  0  0  0  0  0  0  0  0
    2.6958    5.9792   -7.4986 N   0  0  0  0  0  0  0  0  0  0  0  0
    3.1003    7.3649   -9.4986 C   0  0  0  0  0  0  0  0  0  0  0  0
    2.1357    7.5269  -10.5485 O   0  0  0  0  0  0  0  0  0  0  0  0
    1.9562    8.2046   -9.2903 O   0  0  0  0  0  0  0  0  0  0  0  0
    5.4296    5.5372  -10.7963 O   0  0  0  0  0  0  0  0  0  0  0  0
    1.8539    3.9612   -3.3770 C   0  0  0  0  0  0  0  0  0  0  0  0
    0.5108    3.6669   -3.1785 C   0  0  0  0  0  0  0  0  0  0  0  0
   -0.0546    3.8616   -1.9846 N   0  3  0  0  0  0  0  0  0  0  0  0
   -1.3604    3.5751   -1.8238 F   0  0  0  0  0  0  0  0  0  0  0  0
    0.6145    4.3388   -0.9504 N   0  0  0  0  0  0  0  0  0  0  0  0
    1.9130    4.6381   -1.0818 C   0  0  0  0  0  0  0  0  0  0  0  0
    2.6002    4.4626   -2.2942 C   0  0  0  0  0  0  0  0  0  0  0  0
    3.9747    4.8048   -2.3591 C   0  0  0  0  0  0  0  0  0  0  0  0
    4.6471    5.3131   -1.2381 C   0  0  0  0  0  0  0  0  0  0  0  0
    6.0607    5.6977   -1.3332 C   0  0  0  0  0  0  0  0  0  0  0  0
    6.6889    5.5499   -2.3680 O   0  0  0  0  0  0  0  0  0  0  0  0
    6.6842    6.3074   -0.0986 C   0  0  0  0  0  0  0  0  0  0  0  0
    7.7033    6.9769   -0.1734 O   0  0  0  0  0  0  0  0  0  0  0  0
    5.9591    5.9839    1.1871 C   0  0  1  0  0  0  0  0  0  0  0  0
    4.5301    5.9807    1.1001 O   0  0  0  0  0  0  0  0  0  0  0  0
    3.9724    5.4820   -0.0421 C   0  0  0  0  0  0  0  0  0  0  0  0
    2.6155    5.1487    0.0105 C   0  0  0  0  0  0  0  0  0  0  0  0
    1.9554    5.3253    1.1675 F   0  0  0  0  0  0  0  0  0  0  0  0
    6.4366    4.6870    1.7541 C   0  0  1  0  0  0  0  0  0  0  0  0
    6.2808    3.5169    0.9110 O   0  0  0  0  0  0  0  0  0  0  0  0
    7.6411    4.7591    2.5092 O   0  0  0  0  0  0  0  0  0  0  0  0
    6.5286    4.4160    3.1910 C   0  0  0  0  0  0  0  0  0  0  0  0
    6.2722    3.3969    3.7910 O   0  0  0  0  0  0  0  0  0  0  0  0
    3.9752   -0.4828   -3.3468 C   0  0  0  0  0  0  0  0  0  0  0  0
    3.1150   -0.5844   -2.4850 O   0  0  0  0  0  0  0  0  0  0  0  0
    5.1356   -1.4411   -3.4472 C   0  0  0  0  0  0  0  0  0  0  0  0
    5.0062   -2.5924   -3.0679 O   0  0  0  0  0  0  0  0  0  0  0  0
    6.4243   -0.9582   -4.0924 C   0  0  0  0  0  0  0  0  0  0  0  0
    7.3670   -1.7050   -4.2873 O   0  0  0  0  0  0  0  0  0  0  0  0
  1  2  1  0  0  0  0
  2  3  2  0  0  0  0
  3  4  1  0  0  0  0
  3 53  1  0  0  0  0
  4  5  1  0  0  0  0
  5  6  1  1  0  0  0
  5 49  1  0  0  0  0
  6  7  1  0  0  0  0
  7  8  2  0  0  0  0
  7 12  1  0  0  0  0
  8  9  1  0  0  0  0
  8 26  1  0  0  0  0
  9 10  1  0  0  0  0
 10 11  2  0  0  0  0
 10 21  1  0  0  0  0
 11 12  1  0  0  0  0
 11 13  1  0  0  0  0
 13 14  1  0  0  0  0
 13 19  2  0  0  0  0
 14 15  1  0  0  0  0
 15 16  2  0  0  0  0
 15 17  1  0  0  0  0
 17 18  1  0  0  0  0
 18 19  1  0  0  0  0
 18 25  1  0  0  0  0
 19 20  1  0  0  0  0
 20 21  2  0  0  0  0
 20 22  1  0  0  0  0
 22 23  1  0  0  0  0
 22 24  1  0  0  0  0
 23 24  1  0  0  0  0
 26 27  2  0  0  0  0
 26 32  1  0  0  0  0
 27 28  1  0  0  0  0
 28 29  1  0  0  0  0
 28 30  2  0  0  0  0
 30 31  1  0  0  0  0
 31 32  2  0  0  0  0
 31 42  1  0  0  0  0
 32 33  1  0  0  0  0
 33 34  2  0  0  0  0
 34 35  1  0  0  0  0
 34 41  1  0  0  0  0
 35 36  2  0  0  0  0
 35 37  1  0  0  0  0
 37 38  2  0  0  0  0
 39 37  1  6  0  0  0
 39 40  1  0  0  0  0
 39 44  1  0  0  0  0
 40 41  1  0  0  0  0
 41 42  2  0  0  0  0
 42 43  1  0  0  0  0
 44 45  1  6  0  0  0
 44 46  1  0  0  0  0
 44 47  1  0  0  0  0
 46 47  1  0  0  0  0
 47 48  2  0  0  0  0
 49 50  2  0  0  0  0
 49 51  1  0  0  0  0
 51 52  2  0  0  0  0
 51 53  1  0  0  0  0
 53 54  2  0  0  0  0
M  CHG  1  28   1
M  END
$$$$