
 OpenBabel11242002183D

 55 62  0  0  1  0  0  0  0  0999 V2000
   -1.6232   -0.9839   -5.7913 O   0  0  0  0  0  0  0  0  0  0  0  0
   -1.5413   -0.6809   -4.4540 C   0  0  0  0  0  0  0  0  0  0  0  0
   -0.7233   -1.3373   -3.6255 C   0  0  0  0  0  0  0  0  0  0  0  0
    0.0692   -2.3738   -4.1026 O   0  0  0  0  0  0  0  0  0  0  0  0
    1.3502   -2.3955   -3.4825 C   0  0  2  0  0  0  0  0  0  0  0  0
    2.2164   -3.3749   -4.0936 O   0  0  0  0  0  0  0  0  0  0  0  0
    2.4937   -3.2891   -5.4499 C   0  0  0  0  0  0  0  0  0  0  0  0
    2.7934   -4.3954   -6.1739 C   0  0  0  0  0  0  0  0  0  0  0  0
    3.0152   -4.3191   -7.5557 O   0  0  0  0  0  0  0  0  0  0  0  0
    3.0311   -3.0952   -8.2201 C   0  0  0  0  0  0  0  0  0  0  0  0
    2.8976   -1.9466   -7.5370 C   0  0  0  0  0  0  0  0  0  0  0  0
    2.5409   -1.9185   -6.0806 C   0  0  0  0  0  0  0  0  0  0  0  0
    3.0969   -0.6105   -8.1874 C   0  0  3  0  0  0  0  0  0  0  0  0
    4.2877   -0.0820   -7.6314 O   0  0  0  0  0  0  0  0  0  0  0  0
    4.7294    1.1053   -8.1209 C   0  0  0  0  0  0  0  0  0  0  0  0
    5.6095    1.7412   -7.5455 O   0  0  0  0  0  0  0  0  0  0  0  0
    4.1333    1.5379   -9.2501 O   0  0  0  0  0  0  0  0  0  0  0  0
    3.5990    0.6296  -10.2047 C   0  0  3  0  0  0  0  0  0  0  0  0
    3.3484   -0.7267   -9.6407 C   0  0  0  0  0  0  0  0  0  0  0  0
    3.3768   -1.9104  -10.2938 C   0  0  0  0  0  0  0  0  0  0  0  0
    3.2167   -3.1004   -9.5887 O   0  3  0  0  0  0  0  0  0  0  0  0
    3.5837   -2.0543  -11.7580 C   0  0  0  0  0  0  0  0  0  0  0  0
    4.2111   -3.2326  -12.2886 O   0  0  0  0  0  0  0  0  0  0  0  0
    2.8085   -2.9965  -12.5148 O   0  0  0  0  0  0  0  0  0  0  0  0
    2.3348    1.0976  -10.6208 O   0  0  0  0  0  0  0  0  0  0  0  0
    2.9101   -5.7806   -5.5855 C   0  0  0  0  0  0  0  0  0  0  0  0
    3.3642   -5.9218   -4.2692 C   0  0  0  0  0  0  0  0  0  0  0  0
    3.4395   -7.1161   -3.6754 N   0  3  0  0  0  0  0  0  0  0  0  0
    3.8909   -7.1888   -2.4079 F   0  0  0  0  0  0  0  0  0  0  0  0
    3.0899   -8.2314   -4.2808 N   0  0  0  0  0  0  0  0  0  0  0  0
    2.6996   -8.1969   -5.5553 C   0  0  0  0  0  0  0  0  0  0  0  0
    2.6317   -6.9885   -6.2834 C   0  0  0  0  0  0  0  0  0  0  0  0
    2.3112   -7.0875   -7.6584 C   0  0  0  0  0  0  0  0  0  0  0  0
    2.0683   -8.3149   -8.2771 C   0  0  0  0  0  0  0  0  0  0  0  0
    1.9282   -8.3763   -9.7385 C   0  0  0  0  0  0  0  0  0  0  0  0
    2.0938   -7.3804  -10.4262 O   0  0  0  0  0  0  0  0  0  0  0  0
    1.6959   -9.7648  -10.2905 C   0  0  0  0  0  0  0  0  0  0  0  0
    2.2164  -10.1080  -11.3396 O   0  0  0  0  0  0  0  0  0  0  0  0
    0.9599  -10.6675   -9.3271 C   0  0  1  0  0  0  0  0  0  0  0  0
    1.6050  -10.6798   -8.0351 O   0  0  0  0  0  0  0  0  0  0  0  0
    1.9956   -9.4720   -7.5301 C   0  0  0  0  0  0  0  0  0  0  0  0
    2.3457   -9.3969   -6.1828 C   0  0  0  0  0  0  0  0  0  0  0  0
    2.3502  -10.5256   -5.4555 F   0  0  0  0  0  0  0  0  0  0  0  0
   -0.5368  -10.2742   -9.2631 C   0  0  0  0  0  0  0  0  0  0  0  0
   -1.3371  -11.1593   -8.2821 C   0  0  0  0  0  0  0  0  0  0  0  0
   -2.2841  -10.6533   -7.6679 O   0  0  0  0  0  0  0  0  0  0  0  0
   -0.9317  -12.5904   -8.0733 C   0  0  0  0  0  0  0  0  0  0  0  0
   -0.6781   -8.9222   -8.8074 O   0  0  0  0  0  0  0  0  0  0  0  0
   -1.0916  -10.3229  -10.5585 O   0  0  0  0  0  0  0  0  0  0  0  0
    1.1535   -2.7969   -2.0292 C   0  0  0  0  0  0  0  0  0  0  0  0
    1.7468   -3.7128   -1.4748 O   0  0  0  0  0  0  0  0  0  0  0  0
    0.1020   -1.9483   -1.3374 C   0  0  0  0  0  0  0  0  0  0  0  0
   -0.1343   -2.0920   -0.1519 O   0  0  0  0  0  0  0  0  0  0  0  0
   -0.6653   -0.9449   -2.1851 C   0  0  0  0  0  0  0  0  0  0  0  0
   -1.0950    0.1012   -1.7379 O   0  0  0  0  0  0  0  0  0  0  0  0
  1  2  1  0  0  0  0
  2  3  2  0  0  0  0
  3  4  1  0  0  0  0
  3 54  1  0  0  0  0
  4  5  1  0  0  0  0
  5  6  1  6  0  0  0
  5 50  1  0  0  0  0
  6  7  1  0  0  0  0
  7  8  2  0  0  0  0
  7 12  1  0  0  0  0
  8  9  1  0  0  0  0
  8 26  1  0  0  0  0
  9 10  1  0  0  0  0
 10 11  2  0  0  0  0
 10 21  1  0  0  0  0
 11 12  1  0  0  0  0
 11 13  1  0  0  0  0
 13 14  1  0  0  0  0
 13 19  1  0  0  0  0
 14 15  1  0  0  0  0
 15 16  2  0  0  0  0
 15 17  1  0  0  0  0
 17 18  1  0  0  0  0
 18 19  1  0  0  0  0
 18 25  1  0  0  0  0
 19 20  2  0  0  0  0
 20 21  1  0  0  0  0
 20 22  1  0  0  0  0
 22 23  1  0  0  0  0
 22 24  1  0  0  0  0
 23 24  1  0  0  0  0
 26 27  2  0  0  0  0
 26 32  1  0  0  0  0
 27 28  1  0  0  0  0
 28 29  1  0  0  0  0
 28 30  2  0  0  0  0
 30 31  1  0  0  0  0
 31 32  2  0  0  0  0
 31 42  1  0  0  0  0
 32 33  1  0  0  0  0
 33 34  2  0  0  0  0
 34 35  1  0  0  0  0
 34 41  1  0  0  0  0
 35 36  2  0  0  0  0
 35 37  1  0  0  0  0
 37 38  2  0  0  0  0
 37 39  1  0  0  0  0
 39 40  1  0  0  0  0
 39 44  1  1  0  0  0
 40 41  1  0  0  0  0
 41 42  2  0  0  0  0
 42 43  1  0  0  0  0
 44 45  1  0  0  0  0
 44 48  1  0  0  0  0
 44 49  1  0  0  0  0
 45 46  2  0  0  0  0
 45 47  1  0  0  0  0
 50 51  2  0  0  0  0
 50 52  1  0  0  0  0
 52 53  2  0  0  0  0
 52 54  1  0  0  0  0
 54 55  2  0  0  0  0
M  CHG  2  21   1  28   1
M  END
$$$$