
 OpenBabel11262000163D

 54 62  0  0  1  0  0  0  0  0999 V2000
   -0.3738   -1.6940   -1.6574 O   0  0  0  0  0  0  0  0  0  0  0  0
    0.4479   -1.5159   -0.5753 C   0  0  0  0  0  0  0  0  0  0  0  0
    0.9322   -2.5377    0.1367 C   0  0  0  0  0  0  0  0  0  0  0  0
    0.5961   -3.8501   -0.1565 O   0  0  0  0  0  0  0  0  0  0  0  0
    1.7239   -4.6980   -0.0500 C   0  0  2  0  0  0  0  0  0  0  0  0
    1.2845   -6.0640   -0.2897 O   0  0  0  0  0  0  0  0  0  0  0  0
    2.0077   -6.9081   -1.1136 C   0  0  0  0  0  0  0  0  0  0  0  0
    1.9149   -8.2425   -0.9404 C   0  0  0  0  0  0  0  0  0  0  0  0
    2.5482   -9.1722   -1.7757 O   0  0  0  0  0  0  0  0  0  0  0  0
    3.3203   -8.7103   -2.8641 C   0  0  0  0  0  0  0  0  0  0  0  0
    3.4973   -7.3890   -3.0683 C   0  0  0  0  0  0  0  0  0  0  0  0
    2.8555   -6.3326   -2.2160 C   0  0  0  0  0  0  0  0  0  0  0  0
    4.3526   -6.8592   -4.1923 C   0  0  3  0  0  0  0  0  0  0  0  0
    5.5020   -6.2515   -3.6223 O   0  0  0  0  0  0  0  0  0  0  0  0
    6.3978   -5.7730   -4.5179 C   0  0  0  0  0  0  0  0  0  0  0  0
    7.3483   -5.0110   -4.1432 N   0  0  0  0  0  0  0  0  0  0  0  0
    6.2394   -6.1126   -5.8106 O   0  0  0  0  0  0  0  0  0  0  0  0
    5.6546   -7.3578   -6.1737 C   0  0  3  0  0  0  0  0  0  0  0  0
    4.8500   -7.9425   -5.0667 C   0  0  0  0  0  0  0  0  0  0  0  0
    4.6013   -9.2488   -4.8436 C   0  0  0  0  0  0  0  0  0  0  0  0
    3.8918   -9.6422   -3.7150 O   0  3  0  0  0  0  0  0  0  0  0  0
    5.0442  -10.3446   -5.7409 C   0  0  0  0  0  0  0  0  0  0  0  0
    5.9049  -11.3824   -5.2566 O   0  0  0  0  0  0  0  0  0  0  0  0
    4.5269  -11.6756   -5.5537 O   0  0  0  0  0  0  0  0  0  0  0  0
    4.7211   -7.1577   -7.2144 O   0  0  0  0  0  0  0  0  0  0  0  0
    1.1421   -8.7905    0.2099 C   0  0  0  0  0  0  0  0  0  0  0  0
   -0.2083   -9.1204    0.0368 C   0  0  0  0  0  0  0  0  0  0  0  0
   -0.9355   -9.5206    1.0849 N   0  3  0  0  0  0  0  0  0  0  0  0
   -2.2353   -9.8385    0.9090 F   0  0  0  0  0  0  0  0  0  0  0  0
   -0.4290   -9.6008    2.2989 N   0  0  0  0  0  0  0  0  0  0  0  0
    0.8545   -9.2490    2.5041 C   0  0  0  0  0  0  0  0  0  0  0  0
    1.6883   -8.8505    1.4703 N   0  3  0  0  0  0  0  0  0  0  0  0
    2.9804   -8.5084    1.7511 C   0  0  0  0  0  0  0  0  0  0  0  0
    3.4620   -8.4827    3.0569 C   0  0  0  0  0  0  0  0  0  0  0  0
    4.8153   -8.0133    3.3120 C   0  0  0  0  0  0  0  0  0  0  0  0
    5.5691   -7.8127    2.3775 O   0  0  0  0  0  0  0  0  0  0  0  0
    5.1443   -7.7520    4.7606 C   0  0  0  0  0  0  0  0  0  0  0  0
    5.7618   -6.7437    5.0576 O   0  0  0  0  0  0  0  0  0  0  0  0
    4.4669   -8.7119    5.7176 C   0  0  1  0  0  0  0  0  0  0  0  0
    3.0533   -8.8568    5.4138 O   0  0  0  0  0  0  0  0  0  0  0  0
    2.6585   -8.8488    4.1080 C   0  0  0  0  0  0  0  0  0  0  0  0
    1.3646   -9.2547    3.8084 C   0  0  0  0  0  0  0  0  0  0  0  0
    0.5632   -9.6628    4.8023 F   0  0  0  0  0  0  0  0  0  0  0  0
    5.1676  -10.0475    5.8116 C   0  0  1  0  0  0  0  0  0  0  0  0
    6.5557  -10.0212    6.1744 O   0  0  0  0  0  0  0  0  0  0  0  0
    4.4008  -11.1107    6.3893 O   0  0  0  0  0  0  0  0  0  0  0  0
    4.7083  -11.2353    5.0833 C   0  0  0  0  0  0  0  0  0  0  0  0
    4.0177  -11.3235    4.0969 O   0  0  0  0  0  0  0  0  0  0  0  0
    2.3237   -4.7044    1.3609 C   0  0  0  0  0  0  0  0  0  0  0  0
    2.8260   -5.7354    1.8307 O   0  0  0  0  0  0  0  0  0  0  0  0
    2.1170   -3.4474    2.1736 C   0  0  3  0  0  0  0  0  0  0  0  0
    1.8469   -2.2595    1.2871 C   0  0  0  0  0  0  0  0  0  0  0  0
    2.3498   -1.1587    1.4721 O   0  0  0  0  0  0  0  0  0  0  0  0
    1.0866   -3.6657    3.0449 F   0  0  0  0  0  0  0  0  0  0  0  0
  1  2  1  0  0  0  0
  2  3  2  0  0  0  0
  3  4  1  0  0  0  0
  3 52  1  0  0  0  0
  4  5  1  0  0  0  0
  5  6  1  1  0  0  0
  5 49  1  0  0  0  0
  6  7  1  0  0  0  0
  7  8  2  0  0  0  0
  7 12  1  0  0  0  0
  8  9  1  0  0  0  0
  8 26  1  0  0  0  0
  9 10  1  0  0  0  0
 10 11  2  0  0  0  0
 10 21  1  0  0  0  0
 11 12  1  0  0  0  0
 11 13  1  0  0  0  0
 13 14  1  0  0  0  0
 13 19  1  0  0  0  0
 14 15  1  0  0  0  0
 15 16  2  0  0  0  0
 15 17  1  0  0  0  0
 17 18  1  0  0  0  0
 18 19  1  0  0  0  0
 18 25  1  0  0  0  0
 19 20  2  0  0  0  0
 20 21  1  0  0  0  0
 20 22  1  0  0  0  0
 22 23  1  0  0  0  0
 22 24  1  0  0  0  0
 23 24  1  0  0  0  0
 26 27  2  0  0  0  0
 26 32  1  0  0  0  0
 27 28  1  0  0  0  0
 28 29  1  0  0  0  0
 28 30  2  0  0  0  0
 30 31  1  0  0  0  0
 31 32  2  0  0  0  0
 31 42  1  0  0  0  0
 32 33  1  0  0  0  0
 33 34  2  0  0  0  0
 34 35  1  0  0  0  0
 34 41  1  0  0  0  0
 35 36  2  0  0  0  0
 35 37  1  0  0  0  0
 37 38  2  0  0  0  0
 39 37  1  6  0  0  0
 39 40  1  0  0  0  0
 39 44  1  0  0  0  0
 40 41  1  0  0  0  0
 41 42  2  0  0  0  0
 42 43  1  0  0  0  0
 44 45  1  1  0  0  0
 44 46  1  0  0  0  0
 44 47  1  0  0  0  0
 46 47  1  0  0  0  0
 47 48  2  0  0  0  0
 49 50  2  0  0  0  0
 49 51  1  0  0  0  0
 51 52  1  0  0  0  0
 51 54  1  0  0  0  0
 52 53  2  0  0  0  0
M  CHG  3  21   1  28   1  32   1
M  END
$$$$