
 OpenBabel10232012573D

 86100  0  0  1  0  0  0  0  0999 V2000
    2.3747    0.0536   -3.6625 O   0  0  0  0  0  0  0  0  0  0  0  0
    2.0314   -0.0243   -2.2617 C   0  0  3  0  0  0  0  0  0  0  0  0
    2.7869    1.0350   -1.4329 C   0  0  3  0  0  0  0  0  0  0  0  0
    4.2115    0.7952   -1.5279 O   0  0  0  0  0  0  0  0  0  0  0  0
    4.6577   -0.4734   -1.2952 C   0  0  0  0  0  0  0  0  0  0  0  0
    3.8177   -1.5762   -1.3099 C   0  0  0  0  0  0  0  0  0  0  0  0
    2.3992   -1.4440   -1.7903 C   0  0  3  0  0  0  0  0  0  0  0  0
    2.2113   -2.3997   -2.8536 O   0  0  0  0  0  0  0  0  0  0  0  0
    4.3274   -2.7908   -0.8288 C   0  0  0  0  0  0  0  0  0  0  0  0
    5.6574   -2.9674   -0.3580 C   0  0  0  0  0  0  0  0  0  0  0  0
    6.5578   -1.8812   -0.5395 C   0  0  0  0  0  0  0  0  0  0  0  0
    6.0079   -0.6511   -0.9835 C   0  0  0  0  0  0  0  0  0  0  0  0
    6.7954    0.4439   -1.0223 F   0  0  0  0  0  0  0  0  0  0  0  0
    7.9121   -2.1239   -0.2308 C   0  0  0  0  0  0  0  0  0  0  0  0
    9.1351   -0.9094   -0.3913 Cl  0  0  0  0  0  0  0  0  0  0  0  0
    8.3782   -3.3748    0.2348 C   0  0  0  0  0  0  0  0  0  0  0  0
    7.5144   -4.4279    0.5773 C   0  0  0  0  0  0  0  0  0  0  0  0
    6.1408   -4.1529    0.2984 C   0  0  0  0  0  0  0  0  0  0  0  0
    4.9039   -5.2289    0.9456 Cl  0  0  0  0  0  0  0  0  0  0  0  0
    8.0526   -5.7181    1.2024 C   0  0  0  0  0  0  0  0  0  0  0  0
    7.4657   -6.9690    0.8653 C   0  0  0  0  0  0  0  0  0  0  0  0
    7.6065   -8.2534    1.6046 C   0  0  0  0  0  0  0  0  0  0  0  0
    6.8140   -9.6445    1.7617 C   0  0  0  0  0  0  0  0  0  0  0  0
    7.2925  -10.5643    2.7139 C   0  0  0  0  0  0  0  0  0  0  0  0
    6.4779  -11.5313    3.3531 N   0  0  0  0  0  0  0  0  0  0  0  0
    8.5489  -10.3220    3.2489 C   0  0  0  0  0  0  0  0  0  0  0  0
    9.2611   -9.2194    3.0450 N   0  0  0  0  0  0  0  0  0  0  0  0
    8.7945   -8.1682    2.3848 N   0  3  0  0  0  0  0  0  0  0  0  0
    9.5529   -7.0075    2.5262 N   0  3  0  0  0  0  0  0  0  0  0  0
    9.1099   -5.7822    2.1324 C   0  0  0  0  0  0  0  0  0  0  0  0
    9.7819   -4.5545    2.7086 C   0  0  0  0  0  0  0  0  0  0  0  0
   11.1260   -7.1529    3.2398 Cl  0  0  0  0  0  0  0  0  0  0  0  0
    5.3867  -10.1310    1.0147 N   0  3  0  0  0  0  0  0  0  0  0  0
    4.8136  -11.4538    1.1222 N   0  3  0  0  0  0  0  0  0  0  0  0
    5.8048  -12.8854    1.1039 Cl  0  0  0  0  0  0  0  0  0  0  0  0
    3.4974  -11.7383    0.7334 C   0  0  0  0  0  0  0  0  0  0  0  0
    2.7184  -10.9047   -0.1112 C   0  0  0  0  0  0  0  0  0  0  0  0
    3.3489   -9.7169   -0.4286 C   0  0  0  0  0  0  0  0  0  0  0  0
    4.6244   -9.3089    0.1962 C   0  0  0  0  0  0  0  0  0  0  0  0
    5.0495   -8.0198   -0.0741 N   0  0  0  0  0  0  0  0  0  0  0  0
    2.7586   -8.9552   -1.3538 N   0  0  0  0  0  0  0  0  0  0  0  0
    1.6220   -9.2400   -2.0265 N   0  3  0  0  0  0  0  0  0  0  0  0
    0.8584  -10.3412   -1.7109 C   0  0  0  0  0  0  0  0  0  0  0  0
    1.4341  -11.1720   -0.7079 N   0  3  0  0  0  0  0  0  0  0  0  0
    0.7187  -12.2713   -0.2991 N   0  0  0  0  0  0  0  0  0  0  0  0
   -0.5031  -12.5679   -0.8172 N   0  3  0  0  0  0  0  0  0  0  0  0
   -1.2881  -13.7440   -0.2970 C   0  0  0  0  0  0  0  0  0  0  0  0
   -1.0225  -11.8132   -1.7956 C   0  0  0  0  0  0  0  0  0  0  0  0
   -0.3586  -10.7246   -2.2422 N   0  3  0  0  0  0  0  0  0  0  0  0
   -1.1838   -9.8816   -3.4909 Cl  0  0  0  0  0  0  0  0  0  0  0  0
    1.2909   -8.1255   -3.2843 Cl  0  0  0  0  0  0  0  0  0  0  0  0
    2.2978    1.2238    0.0571 C   0  0  3  0  0  0  0  0  0  0  0  0
    0.8211    1.6858    0.0758 C   0  0  0  0  0  0  0  0  0  0  0  0
    0.3057    2.0039    1.4801 C   0  0  0  0  0  0  0  0  0  0  0  0
    1.1832    2.9780    2.2066 C   0  0  0  0  0  0  0  0  0  0  0  0
    2.5390    3.0351    1.9404 C   0  0  0  0  0  0  0  0  0  0  0  0
    3.2041    2.2433    0.8229 C   0  0  3  0  0  0  0  0  0  0  0  0
    4.4551    1.5769    1.4437 C   0  0  3  0  0  0  0  0  0  0  0  0
    4.0626    0.5505    2.2649 F   0  0  0  0  0  0  0  0  0  0  0  0
    5.3778    2.5199    2.2277 C   0  0  0  0  0  0  0  0  0  0  0  0
    4.8138    3.9421    2.3013 C   0  0  3  0  0  0  0  0  0  0  0  0
    3.3692    3.8439    2.7502 C   0  0  0  0  0  0  0  0  0  0  0  0
    2.8819    4.4895    3.9158 C   0  0  0  0  0  0  0  0  0  0  0  0
    1.4699    4.5866    4.0963 C   0  0  0  0  0  0  0  0  0  0  0  0
    0.6637    3.7994    3.2239 C   0  0  0  0  0  0  0  0  0  0  0  0
    0.7879    5.4362    5.1383 C   0  0  0  0  0  0  0  0  0  0  0  0
   -0.4564    5.0692    5.6961 C   0  0  0  0  0  0  0  0  0  0  0  0
   -1.1547    5.8901    6.6127 C   0  0  0  0  0  0  0  0  0  0  0  0
   -2.6531    5.6952    6.8013 C   0  0  3  0  0  0  0  0  0  0  0  0
   -3.3472    6.2320    5.5256 C   0  0  0  0  0  0  0  0  0  0  0  0
   -4.7640    6.1143    5.5975 O   0  0  0  0  0  0  0  0  0  0  0  0
   -5.2978    6.9095    6.6536 C   0  0  0  0  0  0  0  0  0  0  0  0
   -4.7954    6.3790    7.9973 C   0  0  3  0  0  0  0  0  0  0  0  0
   -3.2433    6.3737    8.0662 C   0  0  3  0  0  0  0  0  0  0  0  0
   -2.6355    7.7749    8.2734 C   0  0  0  0  0  0  0  0  0  0  0  0
   -1.1025    7.7441    8.3411 C   0  0  3  0  0  0  0  0  0  0  0  0
   -0.5128    7.0012    7.1656 C   0  0  0  0  0  0  0  0  0  0  0  0
    0.6983    7.4069    6.6097 C   0  0  0  0  0  0  0  0  0  0  0  0
    1.2720    6.6860    5.5594 C   0  0  0  0  0  0  0  0  0  0  0  0
    2.2886    7.2790    4.9187 F   0  0  0  0  0  0  0  0  0  0  0  0
   -0.6030    7.1067    9.6462 C   0  0  0  0  0  0  0  0  0  0  0  0
   -5.4634    7.1230    9.1519 C   0  0  0  0  0  0  0  0  0  0  0  0
    3.9100    4.9761    4.9438 C   0  0  3  0  0  0  0  0  0  0  0  0
    5.3799    4.6644    4.6127 C   0  0  0  0  0  0  0  0  0  0  0  0
    5.6553    4.8934    3.1418 C   0  0  0  0  0  0  0  0  0  0  0  0
    3.5854    4.2145    6.5429 Cl  0  0  0  0  0  0  0  0  0  0  0  0
  1  2  1  0  0  0  0
  2  3  1  0  0  0  0
  2  7  1  0  0  0  0
  3  4  1  0  0  0  0
  3 52  1  0  0  0  0
  4  5  1  0  0  0  0
  5  6  2  0  0  0  0
  5 12  1  0  0  0  0
  6  7  1  0  0  0  0
  6  9  1  0  0  0  0
  7  8  1  0  0  0  0
  9 10  2  0  0  0  0
 10 11  1  0  0  0  0
 10 18  1  0  0  0  0
 11 12  2  0  0  0  0
 11 14  1  0  0  0  0
 12 13  1  0  0  0  0
 14 15  1  0  0  0  0
 14 16  2  0  0  0  0
 16 17  1  0  0  0  0
 17 18  2  0  0  0  0
 17 20  1  0  0  0  0
 18 19  1  0  0  0  0
 20 21  2  0  0  0  0
 20 30  1  0  0  0  0
 21 22  1  0  0  0  0
 22 23  2  0  0  0  0
 22 28  1  0  0  0  0
 23 24  1  0  0  0  0
 23 33  1  0  0  0  0
 24 25  1  0  0  0  0
 24 26  2  0  0  0  0
 26 27  1  0  0  0  0
 27 28  2  0  0  0  0
 28 29  1  0  0  0  0
 29 30  2  0  0  0  0
 29 32  1  0  0  0  0
 30 31  1  0  0  0  0
 33 34  2  0  0  0  0
 33 39  1  0  0  0  0
 34 35  1  0  0  0  0
 34 36  1  0  0  0  0
 36 37  2  0  0  0  0
 37 38  1  0  0  0  0
 37 44  1  0  0  0  0
 38 39  2  0  0  0  0
 38 41  1  0  0  0  0
 39 40  1  0  0  0  0
 41 42  2  0  0  0  0
 42 43  1  0  0  0  0
 42 51  1  0  0  0  0
 43 44  2  0  0  0  0
 43 49  1  0  0  0  0
 44 45  1  0  0  0  0
 45 46  2  0  0  0  0
 46 47  1  0  0  0  0
 46 48  1  0  0  0  0
 48 49  2  0  0  0  0
 49 50  1  0  0  0  0
 52 53  1  0  0  0  0
 52 57  1  0  0  0  0
 53 54  1  0  0  0  0
 54 55  1  0  0  0  0
 55 56  2  0  0  0  0
 55 65  1  0  0  0  0
 56 57  1  0  0  0  0
 56 62  1  0  0  0  0
 57 58  1  0  0  0  0
 58 59  1  0  0  0  0
 58 60  1  0  0  0  0
 60 61  1  0  0  0  0
 61 62  1  0  0  0  0
 61 85  1  0  0  0  0
 62 63  2  0  0  0  0
 63 64  1  0  0  0  0
 63 83  1  0  0  0  0
 64 65  2  0  0  0  0
 64 66  1  0  0  0  0
 66 67  2  0  0  0  0
 66 79  1  0  0  0  0
 67 68  1  0  0  0  0
 68 69  1  0  0  0  0
 68 77  2  0  0  0  0
 69 70  1  0  0  0  0
 69 74  1  0  0  0  0
 70 71  1  0  0  0  0
 71 72  1  0  0  0  0
 72 73  1  0  0  0  0
 73 74  1  0  0  0  0
 73 82  1  0  0  0  0
 74 75  1  0  0  0  0
 75 76  1  0  0  0  0
 76 77  1  0  0  0  0
 76 81  1  0  0  0  0
 77 78  1  0  0  0  0
 78 79  2  0  0  0  0
 79 80  1  0  0  0  0
 83 84  1  0  0  0  0
 83 86  1  0  0  0  0
 84 85  1  0  0  0  0
M  CHG  8  28   1  29   1  33   1  34   1  42   1  44   1  46   1  49   1
M  END
$$$$