
 OpenBabel10252009163D

 99115  0  0  1  0  0  0  0  0999 V2000
    5.4849    3.5850    3.2738 F   0  0  0  0  0  0  0  0  0  0  0  0
    5.5479    4.6459    2.4252 C   0  0  3  0  0  0  0  0  0  0  0  0
    6.2681    5.8030    3.1375 C   0  0  0  0  0  0  0  0  0  0  0  0
    5.4821    7.1273    3.0493 C   0  0  3  0  0  0  0  0  0  0  0  0
    6.2728    8.2756    3.6752 C   0  0  0  0  0  0  0  0  0  0  0  0
    5.8421    8.5594    5.1022 C   0  0  0  0  0  0  0  0  0  0  0  0
    4.3292    8.7725    5.2009 C   0  0  3  0  0  0  0  0  0  0  0  0
    3.5266    7.5816    4.7028 C   0  0  0  0  0  0  0  0  0  0  0  0
    4.0901    6.8569    3.6195 C   0  0  0  0  0  0  0  0  0  0  0  0
    3.4379    5.7244    3.0833 C   0  0  0  0  0  0  0  0  0  0  0  0
    4.1285    5.0077    1.9423 C   0  0  3  0  0  0  0  0  0  0  0  0
    3.3776    3.8240    1.2697 C   0  0  3  0  0  0  0  0  0  0  0  0
    1.8955    3.7403    1.7035 C   0  0  0  0  0  0  0  0  0  0  0  0
    1.6870    3.9477    3.2005 C   0  0  0  0  0  0  0  0  0  0  0  0
    2.2595    5.2646    3.6457 C   0  0  0  0  0  0  0  0  0  0  0  0
    1.6979    5.9786    4.7149 C   0  0  0  0  0  0  0  0  0  0  0  0
    2.2842    7.1446    5.2785 C   0  0  0  0  0  0  0  0  0  0  0  0
    1.6040    7.7798    6.4673 C   0  0  0  0  0  0  0  0  0  0  0  0
    1.6553    9.1607    6.7092 C   0  0  0  0  0  0  0  0  0  0  0  0
    1.2095    9.7694    7.9013 C   0  0  0  0  0  0  0  0  0  0  0  0
    1.6514   11.1980    8.1896 C   0  0  3  0  0  0  0  0  0  0  0  0
    3.1649   11.1809    8.4998 C   0  0  0  0  0  0  0  0  0  0  0  0
    3.7095   12.5557    8.8477 C   0  0  0  0  0  0  0  0  0  0  0  0
    2.9588   13.1695   10.0320 C   0  0  3  0  0  0  0  0  0  0  0  0
    1.4490   13.2606    9.7022 C   0  0  3  0  0  0  0  0  0  0  0  0
    0.8342   11.8834    9.3088 C   0  0  3  0  0  0  0  0  0  0  0  0
    0.6330   10.9148   10.4905 C   0  0  0  0  0  0  0  0  0  0  0  0
   -0.1090    9.6317   10.0669 C   0  0  3  0  0  0  0  0  0  0  0  0
    0.4929    9.0095    8.8262 C   0  0  0  0  0  0  0  0  0  0  0  0
    0.3085    7.6483    8.5611 C   0  0  0  0  0  0  0  0  0  0  0  0
    0.8854    7.0488    7.4333 C   0  0  0  0  0  0  0  0  0  0  0  0
    0.7197    5.7224    7.3143 F   0  0  0  0  0  0  0  0  0  0  0  0
   -1.6046    9.8940    9.8401 C   0  0  0  0  0  0  0  0  0  0  0  0
    0.6515   13.9399   10.8205 C   0  0  0  0  0  0  0  0  0  0  0  0
    3.5848   14.5272   10.3671 C   0  0  0  0  0  0  0  0  0  0  0  0
    3.4336    3.9230   -0.2985 C   0  0  3  0  0  0  0  0  0  0  0  0
    2.8650    5.2262   -0.7080 O   0  0  0  0  0  0  0  0  0  0  0  0
    3.3640    5.8789   -1.8065 C   0  0  0  0  0  0  0  0  0  0  0  0
    4.3433    5.3080   -2.6394 C   0  0  0  0  0  0  0  0  0  0  0  0
    4.7240    3.8497   -2.4305 C   0  0  3  0  0  0  0  0  0  0  0  0
    4.8493    3.7707   -0.8877 C   0  0  3  0  0  0  0  0  0  0  0  0
    5.6661    2.6888   -0.4389 O   0  0  0  0  0  0  0  0  0  0  0  0
    7.0377    2.8749   -0.5451 C   0  0  0  0  0  0  0  0  0  0  0  0
    7.6648    4.0876   -0.8705 C   0  0  0  0  0  0  0  0  0  0  0  0
    9.0506    4.2253   -0.8066 C   0  0  0  0  0  0  0  0  0  0  0  0
    9.8390    3.1335   -0.4750 C   0  0  0  0  0  0  0  0  0  0  0  0
    9.2389    1.9018   -0.2193 C   0  0  0  0  0  0  0  0  0  0  0  0
    7.8430    1.7722   -0.2475 C   0  0  0  0  0  0  0  0  0  0  0  0
    3.6731    3.0908   -3.0975 O   0  0  0  0  0  0  0  0  0  0  0  0
    3.7064    1.7173   -3.1609 C   0  0  0  0  0  0  0  0  0  0  0  0
    4.6960    0.9251   -2.5955 C   0  0  0  0  0  0  0  0  0  0  0  0
    4.5987   -0.4695   -2.5487 C   0  0  0  0  0  0  0  0  0  0  0  0
    3.5246   -1.1159   -3.1374 C   0  0  0  0  0  0  0  0  0  0  0  0
    2.5590   -0.3560   -3.7900 C   0  0  0  0  0  0  0  0  0  0  0  0
    2.6487    1.0519   -3.8047 C   0  0  0  0  0  0  0  0  0  0  0  0
    4.9243    6.1083   -3.6316 C   0  0  0  0  0  0  0  0  0  0  0  0
    4.4208    7.3717   -4.0154 C   0  0  0  0  0  0  0  0  0  0  0  0
    3.2721    7.8496   -3.3194 C   0  0  0  0  0  0  0  0  0  0  0  0
    2.8656    7.1285   -2.1580 C   0  0  0  0  0  0  0  0  0  0  0  0
    1.8996    7.6720   -1.3722 F   0  0  0  0  0  0  0  0  0  0  0  0
    2.6285    8.9532   -3.9148 C   0  0  0  0  0  0  0  0  0  0  0  0
    1.1745    9.6477   -3.2672 Cl  0  0  0  0  0  0  0  0  0  0  0  0
    3.0425    9.5231   -5.1488 C   0  0  0  0  0  0  0  0  0  0  0  0
    4.2406    9.1639   -5.8006 C   0  0  0  0  0  0  0  0  0  0  0  0
    4.9538    8.1465   -5.1051 C   0  0  0  0  0  0  0  0  0  0  0  0
    6.6664    7.9480   -5.4108 Cl  0  0  0  0  0  0  0  0  0  0  0  0
    4.6328    9.8232   -7.1546 C   0  0  0  0  0  0  0  0  0  0  0  0
    4.1900   11.1584   -7.4617 C   0  0  0  0  0  0  0  0  0  0  0  0
    4.3286   11.8354   -8.7724 C   0  0  0  0  0  0  0  0  0  0  0  0
    3.7038   13.1128   -9.4364 C   0  0  0  0  0  0  0  0  0  0  0  0
    4.0094   13.4048  -10.7816 C   0  0  0  0  0  0  0  0  0  0  0  0
    3.1916   14.2119  -11.6209 N   0  0  0  0  0  0  0  0  0  0  0  0
    5.0126   12.6507  -11.3636 C   0  0  0  0  0  0  0  0  0  0  0  0
    5.6058   11.6106  -10.7817 N   0  0  0  0  0  0  0  0  0  0  0  0
    5.2402   11.1308   -9.5965 N   0  3  0  0  0  0  0  0  0  0  0  0
    5.7800    9.9017   -9.2654 N   0  3  0  0  0  0  0  0  0  0  0  0
    5.3611    9.1697   -8.1941 C   0  0  0  0  0  0  0  0  0  0  0  0
    5.6858    7.6928   -8.2337 C   0  0  0  0  0  0  0  0  0  0  0  0
    7.0314    9.2710  -10.2913 Cl  0  0  0  0  0  0  0  0  0  0  0  0
    2.6453   14.1456   -8.7355 N   0  3  0  0  0  0  0  0  0  0  0  0
    1.6731   13.7669   -7.8240 N   0  3  0  0  0  0  0  0  0  0  0  0
    1.0875   12.1469   -7.8090 Cl  0  0  0  0  0  0  0  0  0  0  0  0
    0.8769   14.6832   -7.1446 C   0  0  0  0  0  0  0  0  0  0  0  0
    0.6806   16.0263   -7.5695 C   0  0  0  0  0  0  0  0  0  0  0  0
    1.4535   16.3928   -8.6549 C   0  0  0  0  0  0  0  0  0  0  0  0
    2.5781   15.5199   -9.0923 C   0  0  0  0  0  0  0  0  0  0  0  0
    3.5630   16.1069   -9.8966 N   0  0  0  0  0  0  0  0  0  0  0  0
    1.1390   17.5668   -9.2296 N   0  0  0  0  0  0  0  0  0  0  0  0
    0.1062   18.3799   -8.8787 N   0  3  0  0  0  0  0  0  0  0  0  0
   -0.6115   18.1645   -7.7232 C   0  0  0  0  0  0  0  0  0  0  0  0
   -0.2381   16.9859   -7.0323 N   0  3  0  0  0  0  0  0  0  0  0  0
   -0.7461   16.7891   -5.7722 N   0  0  0  0  0  0  0  0  0  0  0  0
   -1.5888   17.6821   -5.1919 N   0  3  0  0  0  0  0  0  0  0  0  0
   -1.9879   17.5201   -3.7464 C   0  0  0  0  0  0  0  0  0  0  0  0
   -2.0698   18.7096   -5.9081 C   0  0  0  0  0  0  0  0  0  0  0  0
   -1.6140   18.9339   -7.1630 N   0  3  0  0  0  0  0  0  0  0  0  0
   -2.4339   20.1968   -7.9878 Cl  0  0  0  0  0  0  0  0  0  0  0  0
   -0.1124   19.7089   -9.9358 Cl  0  0  0  0  0  0  0  0  0  0  0  0
    3.8800   10.2256    4.2018 Cl  0  0  0  0  0  0  0  0  0  0  0  0
  1  2  1  0  0  0  0
  2  3  1  0  0  0  0
  2 11  1  0  0  0  0
  3  4  1  0  0  0  0
  4  5  1  0  0  0  0
  4  9  1  0  0  0  0
  5  6  1  0  0  0  0
  6  7  1  0  0  0  0
  7  8  1  0  0  0  0
  7 99  1  0  0  0  0
  8  9  2  0  0  0  0
  8 17  1  0  0  0  0
  9 10  1  0  0  0  0
 10 11  1  0  0  0  0
 10 15  2  0  0  0  0
 11 12  1  0  0  0  0
 12 13  1  0  0  0  0
 12 36  1  0  0  0  0
 13 14  1  0  0  0  0
 14 15  1  0  0  0  0
 15 16  1  0  0  0  0
 16 17  2  0  0  0  0
 17 18  1  0  0  0  0
 18 19  2  0  0  0  0
 18 31  1  0  0  0  0
 19 20  1  0  0  0  0
 20 21  1  0  0  0  0
 20 29  2  0  0  0  0
 21 22  1  0  0  0  0
 21 26  1  0  0  0  0
 22 23  1  0  0  0  0
 23 24  1  0  0  0  0
 24 25  1  0  0  0  0
 24 35  1  0  0  0  0
 25 26  1  0  0  0  0
 25 34  1  0  0  0  0
 26 27  1  0  0  0  0
 27 28  1  0  0  0  0
 28 29  1  0  0  0  0
 28 33  1  0  0  0  0
 29 30  1  0  0  0  0
 30 31  2  0  0  0  0
 31 32  1  0  0  0  0
 36 37  1  0  0  0  0
 36 41  1  0  0  0  0
 37 38  1  0  0  0  0
 38 39  2  0  0  0  0
 38 59  1  0  0  0  0
 39 40  1  0  0  0  0
 39 56  1  0  0  0  0
 40 41  1  0  0  0  0
 40 49  1  0  0  0  0
 41 42  1  0  0  0  0
 42 43  1  0  0  0  0
 43 44  2  0  0  0  0
 43 48  1  0  0  0  0
 44 45  1  0  0  0  0
 45 46  2  0  0  0  0
 46 47  1  0  0  0  0
 47 48  2  0  0  0  0
 49 50  1  0  0  0  0
 50 51  2  0  0  0  0
 50 55  1  0  0  0  0
 51 52  1  0  0  0  0
 52 53  2  0  0  0  0
 53 54  1  0  0  0  0
 54 55  2  0  0  0  0
 56 57  2  0  0  0  0
 57 58  1  0  0  0  0
 57 65  1  0  0  0  0
 58 59  2  0  0  0  0
 58 61  1  0  0  0  0
 59 60  1  0  0  0  0
 61 62  1  0  0  0  0
 61 63  2  0  0  0  0
 63 64  1  0  0  0  0
 64 65  2  0  0  0  0
 64 67  1  0  0  0  0
 65 66  1  0  0  0  0
 67 68  2  0  0  0  0
 67 77  1  0  0  0  0
 68 69  1  0  0  0  0
 69 70  2  0  0  0  0
 69 75  1  0  0  0  0
 70 71  1  0  0  0  0
 70 80  1  0  0  0  0
 71 72  1  0  0  0  0
 71 73  2  0  0  0  0
 73 74  1  0  0  0  0
 74 75  2  0  0  0  0
 75 76  1  0  0  0  0
 76 77  2  0  0  0  0
 76 79  1  0  0  0  0
 77 78  1  0  0  0  0
 80 81  2  0  0  0  0
 80 86  1  0  0  0  0
 81 82  1  0  0  0  0
 81 83  1  0  0  0  0
 83 84  2  0  0  0  0
 84 85  1  0  0  0  0
 84 91  1  0  0  0  0
 85 86  2  0  0  0  0
 85 88  1  0  0  0  0
 86 87  1  0  0  0  0
 88 89  2  0  0  0  0
 89 90  1  0  0  0  0
 89 98  1  0  0  0  0
 90 91  2  0  0  0  0
 90 96  1  0  0  0  0
 91 92  1  0  0  0  0
 92 93  2  0  0  0  0
 93 94  1  0  0  0  0
 93 95  1  0  0  0  0
 95 96  2  0  0  0  0
 96 97  1  0  0  0  0
M  CHG  8  75   1  76   1  80   1  81   1  89   1  91   1  93   1  96   1
M  END
$$$$