
 OpenBabel11252023423D

 54 62  0  0  1  0  0  0  0  0999 V2000
    4.0082    6.4996   -4.1684 O   0  0  0  0  0  0  0  0  0  0  0  0
    3.5538    5.2409   -4.4741 C   0  0  0  0  0  0  0  0  0  0  0  0
    3.2422    4.3421   -3.5342 C   0  0  0  0  0  0  0  0  0  0  0  0
    3.4012    4.6446   -2.1877 O   0  0  0  0  0  0  0  0  0  0  0  0
    2.3560    4.1069   -1.3894 C   0  0  2  0  0  0  0  0  0  0  0  0
    2.5520    4.4799    0.0019 O   0  0  0  0  0  0  0  0  0  0  0  0
    2.5928    5.8248    0.3218 C   0  0  0  0  0  0  0  0  0  0  0  0
    3.3308    6.2346    1.3719 C   0  0  0  0  0  0  0  0  0  0  0  0
    3.3784    7.5694    1.7945 O   0  0  0  0  0  0  0  0  0  0  0  0
    2.5232    8.5175    1.1884 C   0  0  0  0  0  0  0  0  0  0  0  0
    1.7058    8.1624    0.1746 C   0  0  0  0  0  0  0  0  0  0  0  0
    1.7145    6.7864   -0.4369 C   0  0  0  0  0  0  0  0  0  0  0  0
    0.7017    9.1258   -0.4208 C   0  0  3  0  0  0  0  0  0  0  0  0
   -0.5857    8.5871   -0.1391 O   0  0  0  0  0  0  0  0  0  0  0  0
   -1.6649    9.3660   -0.3652 C   0  0  0  0  0  0  0  0  0  0  0  0
   -2.8359    8.8618   -0.3224 N   0  0  0  0  0  0  0  0  0  0  0  0
   -1.4858   10.6749   -0.6018 O   0  0  0  0  0  0  0  0  0  0  0  0
   -0.2608   11.3558   -0.3713 C   0  0  3  0  0  0  0  0  0  0  0  0
    0.7720   10.4611    0.2173 C   0  0  0  0  0  0  0  0  0  0  0  0
    1.6489   10.7712    1.1938 C   0  0  0  0  0  0  0  0  0  0  0  0
    2.5297    9.8135    1.6761 O   0  3  0  0  0  0  0  0  0  0  0  0
    1.7205   12.1010    1.8450 C   0  0  0  0  0  0  0  0  0  0  0  0
    0.9649   12.3748    3.0308 O   0  0  0  0  0  0  0  0  0  0  0  0
    2.3980   12.2493    3.1058 O   0  0  0  0  0  0  0  0  0  0  0  0
    0.2875   11.7892   -1.5978 O   0  0  0  0  0  0  0  0  0  0  0  0
    4.0854    5.2352    2.1857 C   0  0  0  0  0  0  0  0  0  0  0  0
    3.4425    4.6537    3.2846 C   0  0  0  0  0  0  0  0  0  0  0  0
    4.0481    3.6860    3.9765 N   0  3  0  0  0  0  0  0  0  0  0  0
    3.4267    3.1508    5.0480 F   0  0  0  0  0  0  0  0  0  0  0  0
    5.2365    3.2277    3.6448 N   0  0  0  0  0  0  0  0  0  0  0  0
    5.8706    3.7415    2.5700 C   0  0  0  0  0  0  0  0  0  0  0  0
    5.3269    4.7777    1.8207 N   0  3  0  0  0  0  0  0  0  0  0  0
    6.0308    5.2963    0.7775 C   0  0  0  0  0  0  0  0  0  0  0  0
    7.2788    4.8063    0.4184 C   0  0  0  0  0  0  0  0  0  0  0  0
    7.9862    5.4184   -0.6916 C   0  0  0  0  0  0  0  0  0  0  0  0
    7.5235    6.4396   -1.1712 O   0  0  0  0  0  0  0  0  0  0  0  0
    9.2535    4.7539   -1.1718 C   0  0  0  0  0  0  0  0  0  0  0  0
    9.9600    5.3270   -1.9829 O   0  0  0  0  0  0  0  0  0  0  0  0
    9.4872    3.3607   -0.6161 C   0  0  1  0  0  0  0  0  0  0  0  0
    9.0245    3.1776    0.7458 O   0  0  0  0  0  0  0  0  0  0  0  0
    7.8366    3.7573    1.1025 C   0  0  0  0  0  0  0  0  0  0  0  0
    7.1356    3.2130    2.1913 C   0  0  0  0  0  0  0  0  0  0  0  0
    7.8043    2.2743    3.0097 N   0  0  0  0  0  0  0  0  0  0  0  0
    8.9631    2.3049   -1.5648 C   0  0  1  0  0  0  0  0  0  0  0  0
    9.5578    2.2629   -2.8696 O   0  0  0  0  0  0  0  0  0  0  0  0
    8.6026    1.0472   -0.9919 O   0  0  0  0  0  0  0  0  0  0  0  0
    7.5928    1.7884   -1.4912 C   0  0  0  0  0  0  0  0  0  0  0  0
    6.6100    2.2588   -0.9654 O   0  0  0  0  0  0  0  0  0  0  0  0
    2.4242    2.5921   -1.4120 C   0  0  0  0  0  0  0  0  0  0  0  0
    2.4323    1.8955   -0.4051 O   0  0  0  0  0  0  0  0  0  0  0  0
    2.5626    2.0303   -2.8100 C   0  0  0  0  0  0  0  0  0  0  0  0
    2.5919    0.8258   -2.9815 O   0  0  0  0  0  0  0  0  0  0  0  0
    2.7365    3.0025   -3.9635 C   0  0  0  0  0  0  0  0  0  0  0  0
    2.4425    2.7154   -5.1078 O   0  0  0  0  0  0  0  0  0  0  0  0
  1  2  1  0  0  0  0
  2  3  2  0  0  0  0
  3  4  1  0  0  0  0
  3 53  1  0  0  0  0
  4  5  1  0  0  0  0
  5  6  1  1  0  0  0
  5 49  1  0  0  0  0
  6  7  1  0  0  0  0
  7  8  2  0  0  0  0
  7 12  1  0  0  0  0
  8  9  1  0  0  0  0
  8 26  1  0  0  0  0
  9 10  1  0  0  0  0
 10 11  2  0  0  0  0
 10 21  1  0  0  0  0
 11 12  1  0  0  0  0
 11 13  1  0  0  0  0
 13 14  1  0  0  0  0
 13 19  1  0  0  0  0
 14 15  1  0  0  0  0
 15 16  2  0  0  0  0
 15 17  1  0  0  0  0
 17 18  1  0  0  0  0
 18 19  1  0  0  0  0
 18 25  1  0  0  0  0
 19 20  2  0  0  0  0
 20 21  1  0  0  0  0
 20 22  1  0  0  0  0
 22 23  1  0  0  0  0
 22 24  1  0  0  0  0
 23 24  1  0  0  0  0
 26 27  2  0  0  0  0
 26 32  1  0  0  0  0
 27 28  1  0  0  0  0
 28 29  1  0  0  0  0
 28 30  2  0  0  0  0
 30 31  1  0  0  0  0
 31 32  2  0  0  0  0
 31 42  1  0  0  0  0
 32 33  1  0  0  0  0
 33 34  2  0  0  0  0
 34 35  1  0  0  0  0
 34 41  1  0  0  0  0
 35 36  2  0  0  0  0
 35 37  1  0  0  0  0
 37 38  2  0  0  0  0
 39 37  1  6  0  0  0
 39 40  1  0  0  0  0
 39 44  1  0  0  0  0
 40 41  1  0  0  0  0
 41 42  2  0  0  0  0
 42 43  1  0  0  0  0
 44 45  1  6  0  0  0
 44 46  1  0  0  0  0
 44 47  1  0  0  0  0
 46 47  1  0  0  0  0
 47 48  2  0  0  0  0
 49 50  2  0  0  0  0
 49 51  1  0  0  0  0
 51 52  2  0  0  0  0
 51 53  1  0  0  0  0
 53 54  2  0  0  0  0
M  CHG  3  21   1  28   1  32   1
M  END
$$$$