
 OpenBabel11152014273D

 53 61  0  0  1  0  0  0  0  0999 V2000
    2.9794    6.7945   -5.9222 O   0  0  0  0  0  0  0  0  0  0  0  0
    2.5988    5.4901   -6.1200 C   0  0  0  0  0  0  0  0  0  0  0  0
    2.7253    4.5711   -5.1566 C   0  0  0  0  0  0  0  0  0  0  0  0
    3.3178    4.9063   -3.9517 O   0  0  0  0  0  0  0  0  0  0  0  0
    2.6755    4.3575   -2.8099 C   0  0  2  0  0  0  0  0  0  0  0  0
    3.3699    4.7807   -1.6092 O   0  0  0  0  0  0  0  0  0  0  0  0
    3.3444    6.1388   -1.2959 C   0  0  0  0  0  0  0  0  0  0  0  0
    4.3185    6.7095   -0.5522 C   0  0  0  0  0  0  0  0  0  0  0  0
    4.3158    8.0521   -0.1721 O   0  0  0  0  0  0  0  0  0  0  0  0
    3.2413    8.8550   -0.5341 C   0  0  0  0  0  0  0  0  0  0  0  0
    2.2022    8.3687   -1.2308 C   0  0  0  0  0  0  0  0  0  0  0  0
    2.1534    6.9610   -1.7177 C   0  0  0  0  0  0  0  0  0  0  0  0
    1.0574    9.2561   -1.6430 C   0  0  3  0  0  0  0  0  0  0  0  0
   -0.1297    8.7337   -1.0560 O   0  0  0  0  0  0  0  0  0  0  0  0
   -1.2761    9.4611   -1.0594 C   0  0  0  0  0  0  0  0  0  0  0  0
   -2.3439    8.9502   -0.7488 O   0  0  0  0  0  0  0  0  0  0  0  0
   -1.1869   10.7719   -1.3930 O   0  0  0  0  0  0  0  0  0  0  0  0
    0.0333   11.4356   -1.7013 C   0  0  3  0  0  0  0  0  0  0  0  0
    1.2071   10.6720   -1.2289 C   0  0  0  0  0  0  0  0  0  0  0  0
    2.2829   11.1054   -0.5335 C   0  0  0  0  0  0  0  0  0  0  0  0
    3.2712   10.1850   -0.1891 N   0  0  0  0  0  0  0  0  0  0  0  0
    2.5008   12.5097   -0.1134 C   0  0  0  0  0  0  0  0  0  0  0  0
    2.0272   12.9964    1.1513 O   0  0  0  0  0  0  0  0  0  0  0  0
    3.4426   12.8628    0.9152 O   0  0  0  0  0  0  0  0  0  0  0  0
    0.1451   11.5593   -3.1112 O   0  0  0  0  0  0  0  0  0  0  0  0
    5.4568    5.9526   -0.0106 C   0  0  0  0  0  0  0  0  0  0  0  0
    5.2341    5.4396    1.2095 N   0  0  0  0  0  0  0  0  0  0  0  0
    6.2047    4.7621    1.7812 N   0  3  0  0  0  0  0  0  0  0  0  0
    5.9914    4.2639    3.0145 F   0  0  0  0  0  0  0  0  0  0  0  0
    7.3824    4.5578    1.2244 N   0  0  0  0  0  0  0  0  0  0  0  0
    7.6247    5.0626    0.0187 C   0  0  0  0  0  0  0  0  0  0  0  0
    6.6722    5.8059   -0.6774 C   0  0  0  0  0  0  0  0  0  0  0  0
    6.9994    6.3511   -1.9453 C   0  0  0  0  0  0  0  0  0  0  0  0
    8.2672    6.1409   -2.4966 C   0  0  0  0  0  0  0  0  0  0  0  0
    9.1966    5.3579   -1.8294 C   0  0  0  0  0  0  0  0  0  0  0  0
    8.8710    4.8459   -0.5695 C   0  0  0  0  0  0  0  0  0  0  0  0
   10.4395    5.0479   -2.3035 O   0  0  0  0  0  0  0  0  0  0  0  0
   10.7033    5.3277   -3.6959 C   0  0  2  0  0  0  0  0  0  0  0  0
   10.0996    6.6389   -4.1445 C   0  0  0  0  0  0  0  0  0  0  0  0
   10.6959    7.5323   -4.7222 O   0  0  0  0  0  0  0  0  0  0  0  0
    8.6445    6.7778   -3.7632 C   0  0  0  0  0  0  0  0  0  0  0  0
    7.8365    7.3765   -4.4487 O   0  0  0  0  0  0  0  0  0  0  0  0
   10.3252    4.1506   -4.5606 C   0  0  1  0  0  0  0  0  0  0  0  0
   11.0065    2.9107   -4.2733 O   0  0  0  0  0  0  0  0  0  0  0  0
    8.9241    4.0015   -4.8342 O   0  0  0  0  0  0  0  0  0  0  0  0
    9.7197    4.3066   -5.8824 C   0  0  0  0  0  0  0  0  0  0  0  0
    9.6792    5.2300   -6.6516 O   0  0  0  0  0  0  0  0  0  0  0  0
    2.6718    2.8326   -2.8439 C   0  0  0  0  0  0  0  0  0  0  0  0
    2.7197    2.1109   -1.8562 O   0  0  0  0  0  0  0  0  0  0  0  0
    2.5533    2.2488   -4.2371 C   0  0  0  0  0  0  0  0  0  0  0  0
    2.7018    1.0494   -4.4123 O   0  0  0  0  0  0  0  0  0  0  0  0
    2.3000    3.1689   -5.4141 C   0  0  0  0  0  0  0  0  0  0  0  0
    1.7851    2.7775   -6.4462 O   0  0  0  0  0  0  0  0  0  0  0  0
  1  2  1  0  0  0  0
  2  3  2  0  0  0  0
  3  4  1  0  0  0  0
  3 52  1  0  0  0  0
  4  5  1  0  0  0  0
  5  6  1  1  0  0  0
  5 48  1  0  0  0  0
  6  7  1  0  0  0  0
  7  8  2  0  0  0  0
  7 12  1  0  0  0  0
  8  9  1  0  0  0  0
  8 26  1  0  0  0  0
  9 10  1  0  0  0  0
 10 11  2  0  0  0  0
 10 21  1  0  0  0  0
 11 12  1  0  0  0  0
 11 13  1  0  0  0  0
 13 14  1  0  0  0  0
 13 19  1  0  0  0  0
 14 15  1  0  0  0  0
 15 16  2  0  0  0  0
 15 17  1  0  0  0  0
 17 18  1  0  0  0  0
 18 19  1  0  0  0  0
 18 25  1  0  0  0  0
 19 20  2  0  0  0  0
 20 21  1  0  0  0  0
 20 22  1  0  0  0  0
 22 23  1  0  0  0  0
 22 24  1  0  0  0  0
 23 24  1  0  0  0  0
 26 27  2  0  0  0  0
 26 32  1  0  0  0  0
 27 28  1  0  0  0  0
 28 29  1  0  0  0  0
 28 30  2  0  0  0  0
 30 31  1  0  0  0  0
 31 32  2  0  0  0  0
 31 36  1  0  0  0  0
 32 33  1  0  0  0  0
 33 34  2  0  0  0  0
 34 35  1  0  0  0  0
 34 41  1  0  0  0  0
 35 36  2  0  0  0  0
 35 37  1  0  0  0  0
 38 37  1  1  0  0  0
 38 39  1  0  0  0  0
 38 43  1  0  0  0  0
 39 40  2  0  0  0  0
 39 41  1  0  0  0  0
 41 42  2  0  0  0  0
 43 44  1  1  0  0  0
 43 45  1  0  0  0  0
 43 46  1  0  0  0  0
 45 46  1  0  0  0  0
 46 47  2  0  0  0  0
 48 49  2  0  0  0  0
 48 50  1  0  0  0  0
 50 51  2  0  0  0  0
 50 52  1  0  0  0  0
 52 53  2  0  0  0  0
M  CHG  1  28   1
M  END
$$$$