
 OpenBabel11152012063D

 52 60  0  0  1  0  0  0  0  0999 V2000
   -1.2555    1.8584   -3.9142 O   0  0  0  0  0  0  0  0  0  0  0  0
   -0.4528    2.0083   -2.8130 C   0  0  0  0  0  0  0  0  0  0  0  0
    0.5148    1.1400   -2.4912 C   0  0  0  0  0  0  0  0  0  0  0  0
    0.7246   -0.0051   -3.2345 O   0  0  0  0  0  0  0  0  0  0  0  0
    2.0711   -0.4700   -3.2525 C   0  0  2  0  0  0  0  0  0  0  0  0
    2.2228   -1.6169   -4.0979 O   0  0  0  0  0  0  0  0  0  0  0  0
    2.0129   -1.4415   -5.4598 C   0  0  0  0  0  0  0  0  0  0  0  0
    2.0961   -2.4791   -6.3245 C   0  0  0  0  0  0  0  0  0  0  0  0
    2.0232   -2.2866   -7.7108 O   0  0  0  0  0  0  0  0  0  0  0  0
    2.1311   -1.0068   -8.2273 C   0  0  0  0  0  0  0  0  0  0  0  0
    2.0542    0.0830   -7.4506 C   0  0  0  0  0  0  0  0  0  0  0  0
    1.8166   -0.0373   -5.9887 C   0  0  0  0  0  0  0  0  0  0  0  0
    2.2593    1.4657   -8.0223 C   0  0  3  0  0  0  0  0  0  0  0  0
    3.3225    2.0758   -7.2811 O   0  0  0  0  0  0  0  0  0  0  0  0
    4.0780    3.0881   -7.7688 C   0  0  0  0  0  0  0  0  0  0  0  0
    4.9109    3.6468   -7.0664 O   0  0  0  0  0  0  0  0  0  0  0  0
    3.8945    3.4468   -9.0607 O   0  0  0  0  0  0  0  0  0  0  0  0
    2.9481    2.8281   -9.9169 C   0  0  3  0  0  0  0  0  0  0  0  0
    2.6161    1.4642   -9.4652 C   0  0  0  0  0  0  0  0  0  0  0  0
    2.6514    0.3263  -10.1944 C   0  0  0  0  0  0  0  0  0  0  0  0
    2.3582   -0.8793   -9.5735 N   0  0  0  0  0  0  0  0  0  0  0  0
    2.9959    0.2621  -11.6304 C   0  0  0  0  0  0  0  0  0  0  0  0
    4.3579    0.3186  -12.0803 O   0  0  0  0  0  0  0  0  0  0  0  0
    3.6012   -0.8999  -12.2207 O   0  0  0  0  0  0  0  0  0  0  0  0
    1.7610    3.6004   -9.9311 O   0  0  0  0  0  0  0  0  0  0  0  0
    2.4377   -3.8792   -5.9665 C   0  0  0  0  0  0  0  0  0  0  0  0
    3.3846   -4.4037   -6.7831 N   0  0  0  0  0  0  0  0  0  0  0  0
    3.8174   -5.6051   -6.5697 N   0  0  0  0  0  0  0  0  0  0  0  0
    3.3865   -6.3258   -5.5733 N   0  0  0  0  0  0  0  0  0  0  0  0
    2.4495   -5.8600   -4.7555 C   0  0  0  0  0  0  0  0  0  0  0  0
    1.8783   -4.5954   -4.9179 C   0  0  0  0  0  0  0  0  0  0  0  0
    0.8700   -4.1660   -4.0881 N   0  0  0  0  0  0  0  0  0  0  0  0
    0.5210   -4.9939   -3.0713 C   0  0  0  0  0  0  0  0  0  0  0  0
    1.1258   -6.2137   -2.8831 C   0  0  0  0  0  0  0  0  0  0  0  0
    2.0613   -6.6572   -3.7442 N   0  0  0  0  0  0  0  0  0  0  0  0
    0.8564   -7.0826   -1.8692 O   0  0  0  0  0  0  0  0  0  0  0  0
    0.1729   -6.5561   -0.7293 C   0  0  2  0  0  0  0  0  0  0  0  0
   -0.8932   -5.5373   -1.0500 C   0  0  0  0  0  0  0  0  0  0  0  0
   -1.9563   -5.4423   -0.4526 O   0  0  0  0  0  0  0  0  0  0  0  0
   -0.5426   -4.5711   -2.1570 C   0  0  0  0  0  0  0  0  0  0  0  0
   -1.1309   -3.5053   -2.2583 O   0  0  0  0  0  0  0  0  0  0  0  0
    1.1459   -6.0382    0.2960 C   0  0  1  0  0  0  0  0  0  0  0  0
    2.0292   -4.9840   -0.1402 O   0  0  0  0  0  0  0  0  0  0  0  0
    0.6256   -5.8452    1.6105 O   0  0  0  0  0  0  0  0  0  0  0  0
    1.5247   -6.8299    1.4531 C   0  0  0  0  0  0  0  0  0  0  0  0
    1.4378   -8.0188    1.7104 O   0  0  0  0  0  0  0  0  0  0  0  0
    2.5404   -0.8167   -1.8558 C   0  0  0  0  0  0  0  0  0  0  0  0
    3.1498   -1.8215   -1.5177 O   0  0  0  0  0  0  0  0  0  0  0  0
    2.2502    0.2889   -0.8731 C   0  0  0  0  0  0  0  0  0  0  0  0
    2.7793    0.2801    0.2277 O   0  0  0  0  0  0  0  0  0  0  0  0
    1.3164    1.4154   -1.2681 C   0  0  0  0  0  0  0  0  0  0  0  0
    1.2638    2.4570   -0.6354 O   0  0  0  0  0  0  0  0  0  0  0  0
  1  2  1  0  0  0  0
  2  3  2  0  0  0  0
  3  4  1  0  0  0  0
  3 51  1  0  0  0  0
  4  5  1  0  0  0  0
  5  6  1  6  0  0  0
  5 47  1  0  0  0  0
  6  7  1  0  0  0  0
  7  8  2  0  0  0  0
  7 12  1  0  0  0  0
  8  9  1  0  0  0  0
  8 26  1  0  0  0  0
  9 10  1  0  0  0  0
 10 11  2  0  0  0  0
 10 21  1  0  0  0  0
 11 12  1  0  0  0  0
 11 13  1  0  0  0  0
 13 14  1  0  0  0  0
 13 19  1  0  0  0  0
 14 15  1  0  0  0  0
 15 16  2  0  0  0  0
 15 17  1  0  0  0  0
 17 18  1  0  0  0  0
 18 19  1  0  0  0  0
 18 25  1  0  0  0  0
 19 20  2  0  0  0  0
 20 21  1  0  0  0  0
 20 22  1  0  0  0  0
 22 23  1  0  0  0  0
 22 24  1  0  0  0  0
 23 24  1  0  0  0  0
 26 27  2  0  0  0  0
 26 31  1  0  0  0  0
 27 28  1  0  0  0  0
 28 29  2  0  0  0  0
 29 30  1  0  0  0  0
 30 31  2  0  0  0  0
 30 35  1  0  0  0  0
 31 32  1  0  0  0  0
 32 33  2  0  0  0  0
 33 34  1  0  0  0  0
 33 40  1  0  0  0  0
 34 35  2  0  0  0  0
 34 36  1  0  0  0  0
 37 36  1  6  0  0  0
 37 38  1  0  0  0  0
 37 42  1  0  0  0  0
 38 39  2  0  0  0  0
 38 40  1  0  0  0  0
 40 41  2  0  0  0  0
 42 43  1  6  0  0  0
 42 44  1  0  0  0  0
 42 45  1  0  0  0  0
 44 45  1  0  0  0  0
 45 46  2  0  0  0  0
 47 48  2  0  0  0  0
 47 49  1  0  0  0  0
 49 50  2  0  0  0  0
 49 51  1  0  0  0  0
 51 52  2  0  0  0  0
M  END
$$$$