
 OpenBabel11212001433D

 53 61  0  0  1  0  0  0  0  0999 V2000
   -2.4652    4.7008   -0.4884 O   0  0  0  0  0  0  0  0  0  0  0  0
   -1.5572    5.1765   -1.3994 C   0  0  0  0  0  0  0  0  0  0  0  0
   -0.2333    5.0564   -1.2281 C   0  0  0  0  0  0  0  0  0  0  0  0
    0.2476    4.4408   -0.0932 O   0  0  0  0  0  0  0  0  0  0  0  0
    1.6340    4.1734    0.0156 C   0  0  2  0  0  0  0  0  0  0  0  0
    2.0040    3.9782    1.3923 O   0  0  0  0  0  0  0  0  0  0  0  0
    1.9850    5.0721    2.2470 C   0  0  0  0  0  0  0  0  0  0  0  0
    2.8778    5.1674    3.2509 C   0  0  0  0  0  0  0  0  0  0  0  0
    2.9070    6.2244    4.1511 O   0  0  0  0  0  0  0  0  0  0  0  0
    1.9114    7.1857    4.1105 C   0  0  0  0  0  0  0  0  0  0  0  0
    0.9309    7.1513    3.1901 C   0  0  0  0  0  0  0  0  0  0  0  0
    0.8966    6.1070    2.1067 C   0  0  0  0  0  0  0  0  0  0  0  0
   -0.1913    8.1513    3.1943 C   0  0  3  0  0  0  0  0  0  0  0  0
   -1.3821    7.4480    3.5065 O   0  0  0  0  0  0  0  0  0  0  0  0
   -2.5273    8.1582    3.6800 C   0  0  0  0  0  0  0  0  0  0  0  0
   -3.6215    7.6175    3.6974 O   0  0  0  0  0  0  0  0  0  0  0  0
   -2.3833    9.4968    3.8370 O   0  0  0  0  0  0  0  0  0  0  0  0
   -1.1638   10.1133    4.2295 C   0  0  3  0  0  0  0  0  0  0  0  0
   -0.0219    9.1676    4.2601 C   0  0  0  0  0  0  0  0  0  0  0  0
    1.0148    9.1662    5.1272 C   0  0  0  0  0  0  0  0  0  0  0  0
    1.9694    8.1667    5.0662 O   0  3  0  0  0  0  0  0  0  0  0  0
    1.2042   10.1772    6.1917 C   0  0  0  0  0  0  0  0  0  0  0  0
    0.7015    9.9605    7.5155 O   0  0  0  0  0  0  0  0  0  0  0  0
    2.1216    9.9352    7.2736 O   0  0  0  0  0  0  0  0  0  0  0  0
   -0.8167   11.0900    3.2686 O   0  0  0  0  0  0  0  0  0  0  0  0
    3.8743    4.1296    3.5530 C   0  0  0  0  0  0  0  0  0  0  0  0
    5.1148    4.1867    2.9440 C   0  0  0  0  0  0  0  0  0  0  0  0
    6.0999    3.3392    3.2671 N   0  0  0  0  0  0  0  0  0  0  0  0
    5.8831    2.3840    4.2317 N   0  0  0  0  0  0  0  0  0  0  0  0
    4.6934    2.2511    4.8468 C   0  0  0  0  0  0  0  0  0  0  0  0
    3.6316    3.1135    4.5108 C   0  0  0  0  0  0  0  0  0  0  0  0
    2.3784    2.9320    5.1443 C   0  0  0  0  0  0  0  0  0  0  0  0
    2.1937    1.9486    6.1200 C   0  0  0  0  0  0  0  0  0  0  0  0
    0.8786    1.7792    6.7477 C   0  0  0  0  0  0  0  0  0  0  0  0
   -0.0646    2.5039    6.4703 O   0  0  0  0  0  0  0  0  0  0  0  0
    0.7676    0.6718    7.7676 C   0  0  0  0  0  0  0  0  0  0  0  0
   -0.3105    0.1666    8.0417 O   0  0  0  0  0  0  0  0  0  0  0  0
    2.0845    0.3117    8.4149 C   0  0  1  0  0  0  0  0  0  0  0  0
    3.1839    0.1964    7.4963 O   0  0  0  0  0  0  0  0  0  0  0  0
    3.2493    1.1393    6.5036 C   0  0  0  0  0  0  0  0  0  0  0  0
    4.4757    1.2830    5.8433 C   0  0  0  0  0  0  0  0  0  0  0  0
    5.5161    0.4559    6.2052 O   0  0  0  0  0  0  0  0  0  0  0  0
    2.4163    1.2749    9.5117 C   0  0  1  0  0  0  0  0  0  0  0  0
    2.5145    2.6763    9.1441 O   0  0  0  0  0  0  0  0  0  0  0  0
    1.7870    1.0047   10.7592 O   0  0  0  0  0  0  0  0  0  0  0  0
    3.1295    0.9031   10.7334 C   0  0  0  0  0  0  0  0  0  0  0  0
    3.9649    1.5403   11.3448 O   0  0  0  0  0  0  0  0  0  0  0  0
    2.5431    5.1666   -0.7211 C   0  0  0  0  0  0  0  0  0  0  0  0
    3.5349    5.6846   -0.2025 O   0  0  0  0  0  0  0  0  0  0  0  0
    2.1375    5.4074   -2.1506 C   0  0  3  0  0  0  0  0  0  0  0  0
    0.6557    5.6587   -2.2733 C   0  0  0  0  0  0  0  0  0  0  0  0
    0.1771    6.3066   -3.2058 O   0  0  0  0  0  0  0  0  0  0  0  0
    2.8608    6.4297   -2.7006 F   0  0  0  0  0  0  0  0  0  0  0  0
  1  2  1  0  0  0  0
  2  3  2  0  0  0  0
  3  4  1  0  0  0  0
  3 51  1  0  0  0  0
  4  5  1  0  0  0  0
  5  6  1  1  0  0  0
  5 48  1  0  0  0  0
  6  7  1  0  0  0  0
  7  8  2  0  0  0  0
  7 12  1  0  0  0  0
  8  9  1  0  0  0  0
  8 26  1  0  0  0  0
  9 10  1  0  0  0  0
 10 11  2  0  0  0  0
 10 21  1  0  0  0  0
 11 12  1  0  0  0  0
 11 13  1  0  0  0  0
 13 14  1  0  0  0  0
 13 19  1  0  0  0  0
 14 15  1  0  0  0  0
 15 16  2  0  0  0  0
 15 17  1  0  0  0  0
 17 18  1  0  0  0  0
 18 19  1  0  0  0  0
 18 25  1  0  0  0  0
 19 20  2  0  0  0  0
 20 21  1  0  0  0  0
 20 22  1  0  0  0  0
 22 23  1  0  0  0  0
 22 24  1  0  0  0  0
 23 24  1  0  0  0  0
 26 27  2  0  0  0  0
 26 31  1  0  0  0  0
 27 28  1  0  0  0  0
 28 29  2  0  0  0  0
 29 30  1  0  0  0  0
 30 31  2  0  0  0  0
 30 41  1  0  0  0  0
 31 32  1  0  0  0  0
 32 33  2  0  0  0  0
 33 34  1  0  0  0  0
 33 40  1  0  0  0  0
 34 35  2  0  0  0  0
 34 36  1  0  0  0  0
 36 37  2  0  0  0  0
 38 36  1  6  0  0  0
 38 39  1  0  0  0  0
 38 43  1  0  0  0  0
 39 40  1  0  0  0  0
 40 41  2  0  0  0  0
 41 42  1  0  0  0  0
 43 44  1  6  0  0  0
 43 45  1  0  0  0  0
 43 46  1  0  0  0  0
 45 46  1  0  0  0  0
 46 47  2  0  0  0  0
 48 49  2  0  0  0  0
 48 50  1  0  0  0  0
 50 51  1  0  0  0  0
 50 53  1  0  0  0  0
 51 52  2  0  0  0  0
M  CHG  1  21   1
M  END
$$$$