
 OpenBabel11272001223D

 54 62  0  0  1  0  0  0  0  0999 V2000
    6.3102   -2.5538    4.9941 F   0  0  0  0  0  0  0  0  0  0  0  0
    6.0363   -1.2359    5.0352 C   0  0  0  0  0  0  0  0  0  0  0  0
    4.8780   -0.7502    4.5865 C   0  0  0  0  0  0  0  0  0  0  0  0
    3.9209   -1.5794    4.0395 O   0  0  0  0  0  0  0  0  0  0  0  0
    2.5925   -1.1456    4.3516 C   0  0  2  0  0  0  0  0  0  0  0  0
    1.6258   -2.1556    4.0543 O   0  0  0  0  0  0  0  0  0  0  0  0
    1.8207   -3.3736    4.7091 C   0  0  0  0  0  0  0  0  0  0  0  0
    1.4096   -4.5416    4.1690 C   0  0  0  0  0  0  0  0  0  0  0  0
    1.5940   -5.7775    4.7886 O   0  0  0  0  0  0  0  0  0  0  0  0
    2.3537   -5.8435    5.9458 C   0  0  0  0  0  0  0  0  0  0  0  0
    2.7975   -4.7409    6.5676 C   0  0  0  0  0  0  0  0  0  0  0  0
    2.4833   -3.3766    6.0663 C   0  0  0  0  0  0  0  0  0  0  0  0
    3.7128   -4.8380    7.7583 C   0  0  3  0  0  0  0  0  0  0  0  0
    3.1042   -4.1138    8.8275 O   0  0  0  0  0  0  0  0  0  0  0  0
    3.6134   -4.2350   10.0644 C   0  0  0  0  0  0  0  0  0  0  0  0
    3.2447   -3.4123   10.9759 N   0  0  0  0  0  0  0  0  0  0  0  0
    4.4790   -5.2239   10.3415 O   0  0  0  0  0  0  0  0  0  0  0  0
    4.8598   -6.2203    9.3946 C   0  0  3  0  0  0  0  0  0  0  0  0
    3.9819   -6.2302    8.2046 C   0  0  0  0  0  0  0  0  0  0  0  0
    3.4723   -7.2997    7.5520 C   0  0  0  0  0  0  0  0  0  0  0  0
    2.6607   -7.0840    6.4456 N   0  0  0  0  0  0  0  0  0  0  0  0
    3.7276   -8.7104    7.9169 C   0  0  0  0  0  0  0  0  0  0  0  0
    3.7512   -9.7594    6.9329 O   0  0  0  0  0  0  0  0  0  0  0  0
    4.9663   -9.3627    7.5980 O   0  0  0  0  0  0  0  0  0  0  0  0
    6.1806   -5.9458    8.9605 O   0  0  0  0  0  0  0  0  0  0  0  0
    0.7294   -4.6383    2.8666 C   0  0  0  0  0  0  0  0  0  0  0  0
    1.5681   -4.7992    1.8137 N   0  0  0  0  0  0  0  0  0  0  0  0
    1.0098   -4.9210    0.5981 C   0  0  0  0  0  0  0  0  0  0  0  0
    1.8324   -5.0762   -0.4485 F   0  0  0  0  0  0  0  0  0  0  0  0
   -0.3502   -4.9033    0.3652 C   0  0  0  0  0  0  0  0  0  0  0  0
   -1.2179   -4.7446    1.4501 C   0  0  0  0  0  0  0  0  0  0  0  0
   -0.6828   -4.6059    2.7482 C   0  0  0  0  0  0  0  0  0  0  0  0
   -1.5901   -4.4434    3.8240 C   0  0  0  0  0  0  0  0  0  0  0  0
   -2.9775   -4.4046    3.6092 C   0  0  0  0  0  0  0  0  0  0  0  0
   -3.8804   -4.1650    4.7376 C   0  0  0  0  0  0  0  0  0  0  0  0
   -3.4705   -4.0726    5.8838 O   0  0  0  0  0  0  0  0  0  0  0  0
   -5.3529   -4.0425    4.4343 C   0  0  0  0  0  0  0  0  0  0  0  0
   -6.1424   -3.6520    5.2839 O   0  0  0  0  0  0  0  0  0  0  0  0
   -5.7772   -4.5834    3.0912 C   0  0  1  0  0  0  0  0  0  0  0  0
   -4.8269   -4.5082    2.0285 O   0  0  0  0  0  0  0  0  0  0  0  0
   -3.5006   -4.5522    2.3359 C   0  0  0  0  0  0  0  0  0  0  0  0
   -2.6129   -4.7183    1.2692 C   0  0  0  0  0  0  0  0  0  0  0  0
   -3.1112   -4.8515    0.0280 F   0  0  0  0  0  0  0  0  0  0  0  0
   -6.3370   -5.9743    3.1927 C   0  0  1  0  0  0  0  0  0  0  0  0
   -6.7721   -6.5748    1.9490 O   0  0  0  0  0  0  0  0  0  0  0  0
   -5.6645   -6.8384    4.1049 O   0  0  0  0  0  0  0  0  0  0  0  0
   -6.9489   -6.5410    4.3925 C   0  0  0  0  0  0  0  0  0  0  0  0
   -7.9031   -7.2833    4.5101 O   0  0  0  0  0  0  0  0  0  0  0  0
    2.3784    0.1718    3.6042 C   0  0  0  0  0  0  0  0  0  0  0  0
    1.3936    0.3999    2.9005 O   0  0  0  0  0  0  0  0  0  0  0  0
    3.4278    1.2299    3.8936 C   0  0  3  0  0  0  0  0  0  0  0  0
    4.6158    0.7145    4.6802 C   0  0  0  0  0  0  0  0  0  0  0  0
    5.3338    1.4462    5.3582 O   0  0  0  0  0  0  0  0  0  0  0  0
    3.8425    1.8515    2.7503 F   0  0  0  0  0  0  0  0  0  0  0  0
  1  2  1  0  0  0  0
  2  3  2  0  0  0  0
  3  4  1  0  0  0  0
  3 52  1  0  0  0  0
  4  5  1  0  0  0  0
  5  6  1  6  0  0  0
  5 49  1  0  0  0  0
  6  7  1  0  0  0  0
  7  8  2  0  0  0  0
  7 12  1  0  0  0  0
  8  9  1  0  0  0  0
  8 26  1  0  0  0  0
  9 10  1  0  0  0  0
 10 11  2  0  0  0  0
 10 21  1  0  0  0  0
 11 12  1  0  0  0  0
 11 13  1  0  0  0  0
 13 14  1  0  0  0  0
 13 19  1  0  0  0  0
 14 15  1  0  0  0  0
 15 16  2  0  0  0  0
 15 17  1  0  0  0  0
 17 18  1  0  0  0  0
 18 19  1  0  0  0  0
 18 25  1  0  0  0  0
 19 20  2  0  0  0  0
 20 21  1  0  0  0  0
 20 22  1  0  0  0  0
 22 23  1  0  0  0  0
 22 24  1  0  0  0  0
 23 24  1  0  0  0  0
 26 27  2  0  0  0  0
 26 32  1  0  0  0  0
 27 28  1  0  0  0  0
 28 29  1  0  0  0  0
 28 30  2  0  0  0  0
 30 31  1  0  0  0  0
 31 32  2  0  0  0  0
 31 42  1  0  0  0  0
 32 33  1  0  0  0  0
 33 34  2  0  0  0  0
 34 35  1  0  0  0  0
 34 41  1  0  0  0  0
 35 36  2  0  0  0  0
 35 37  1  0  0  0  0
 37 38  2  0  0  0  0
 39 37  1  1  0  0  0
 39 40  1  0  0  0  0
 39 44  1  0  0  0  0
 40 41  1  0  0  0  0
 41 42  2  0  0  0  0
 42 43  1  0  0  0  0
 44 45  1  6  0  0  0
 44 46  1  0  0  0  0
 44 47  1  0  0  0  0
 46 47  1  0  0  0  0
 47 48  2  0  0  0  0
 49 50  2  0  0  0  0
 49 51  1  0  0  0  0
 51 52  1  0  0  0  0
 51 54  1  0  0  0  0
 52 53  2  0  0  0  0
M  END
$$$$