
 OpenBabel11262014463D

 53 61  0  0  1  0  0  0  0  0999 V2000
   -1.6119    5.1636   -0.9761 F   0  0  0  0  0  0  0  0  0  0  0  0
   -1.2334    4.1531   -0.1646 C   0  0  0  0  0  0  0  0  0  0  0  0
   -0.3503    3.2421   -0.5748 C   0  0  0  0  0  0  0  0  0  0  0  0
    0.1712    3.3026   -1.8564 O   0  0  0  0  0  0  0  0  0  0  0  0
    1.5255    2.8524   -1.9555 C   0  0  2  0  0  0  0  0  0  0  0  0
    2.0574    3.1499   -3.2641 O   0  0  0  0  0  0  0  0  0  0  0  0
    2.1721    4.4887   -3.6361 C   0  0  0  0  0  0  0  0  0  0  0  0
    2.6830    4.8267   -4.8402 C   0  0  0  0  0  0  0  0  0  0  0  0
    2.8081    6.1550   -5.2732 O   0  0  0  0  0  0  0  0  0  0  0  0
    2.4442    7.2040   -4.4132 C   0  0  0  0  0  0  0  0  0  0  0  0
    1.9436    6.9518   -3.1904 C   0  0  0  0  0  0  0  0  0  0  0  0
    1.7161    5.5645   -2.6843 C   0  0  0  0  0  0  0  0  0  0  0  0
    1.5698    8.0438   -2.2254 C   0  0  3  0  0  0  0  0  0  0  0  0
    2.3944    7.8909   -1.0844 O   0  0  0  0  0  0  0  0  0  0  0  0
    2.1268    8.7396   -0.0537 C   0  0  0  0  0  0  0  0  0  0  0  0
    2.4092    8.4575    1.0970 O   0  0  0  0  0  0  0  0  0  0  0  0
    1.4929    9.8833   -0.4164 O   0  0  0  0  0  0  0  0  0  0  0  0
    1.6574   10.4449   -1.7295 C   0  0  0  0  0  0  0  0  0  0  0  0
    1.8597    9.3893   -2.7716 C   0  0  0  0  0  0  0  0  0  0  0  0
    2.3442    9.5826   -4.0191 C   0  0  0  0  0  0  0  0  0  0  0  0
    2.6116    8.5013   -4.8521 O   0  3  0  0  0  0  0  0  0  0  0  0
    2.6729   10.9177   -4.5671 C   0  0  0  0  0  0  0  0  0  0  0  0
    4.0024   11.4412   -4.4722 O   0  0  0  0  0  0  0  0  0  0  0  0
    3.4799   11.0338   -5.7519 O   0  0  0  0  0  0  0  0  0  0  0  0
    3.1775    3.7939   -5.7939 C   0  0  0  0  0  0  0  0  0  0  0  0
    4.5267    3.4407   -5.7282 C   0  0  0  0  0  0  0  0  0  0  0  0
    5.0089    2.4441   -6.5500 C   0  0  0  0  0  0  0  0  0  0  0  0
    6.2996    2.1078   -6.4846 F   0  0  0  0  0  0  0  0  0  0  0  0
    4.1734    1.7862   -7.4259 C   0  0  0  0  0  0  0  0  0  0  0  0
    2.8216    2.1374   -7.4913 C   0  0  0  0  0  0  0  0  0  0  0  0
    2.3358    3.1620   -6.6823 N   0  3  0  0  0  0  0  0  0  0  0  0
    1.0205    3.4989   -6.7883 C   0  0  0  0  0  0  0  0  0  0  0  0
    0.1514    2.8118   -7.6260 C   0  0  0  0  0  0  0  0  0  0  0  0
   -1.2529    3.1691   -7.6313 C   0  0  0  0  0  0  0  0  0  0  0  0
   -1.5885    4.2781   -7.2530 O   0  0  0  0  0  0  0  0  0  0  0  0
   -2.2214    2.0684   -7.9864 C   0  0  0  0  0  0  0  0  0  0  0  0
   -3.3579    2.0982   -7.5340 O   0  0  0  0  0  0  0  0  0  0  0  0
   -1.6109    0.8655   -8.6890 C   0  0  1  0  0  0  0  0  0  0  0  0
   -0.2600    1.0245   -9.1742 O   0  0  0  0  0  0  0  0  0  0  0  0
    0.5830    1.7675   -8.4023 C   0  0  0  0  0  0  0  0  0  0  0  0
    1.9350    1.4619   -8.3623 C   0  0  0  0  0  0  0  0  0  0  0  0
    2.4017    0.4682   -9.1326 F   0  0  0  0  0  0  0  0  0  0  0  0
   -1.7757   -0.3422   -7.7903 C   0  0  1  0  0  0  0  0  0  0  0  0
   -3.1213   -0.7713   -7.5136 O   0  0  0  0  0  0  0  0  0  0  0  0
   -0.7828   -1.3677   -7.9128 O   0  0  0  0  0  0  0  0  0  0  0  0
   -0.7889   -0.6750   -6.7656 C   0  0  0  0  0  0  0  0  0  0  0  0
    0.0333    0.0517   -6.2362 O   0  0  0  0  0  0  0  0  0  0  0  0
    1.4919    1.3653   -1.6644 C   0  0  0  0  0  0  0  0  0  0  0  0
    1.8426    0.4869   -2.4346 O   0  0  0  0  0  0  0  0  0  0  0  0
    0.9236    1.0864   -0.2859 C   0  0  0  0  0  0  0  0  0  0  0  0
    1.1954    0.0519    0.2952 O   0  0  0  0  0  0  0  0  0  0  0  0
    0.0587    2.1611    0.3651 C   0  0  0  0  0  0  0  0  0  0  0  0
   -0.2027    2.1687    1.5529 O   0  0  0  0  0  0  0  0  0  0  0  0
  1  2  1  0  0  0  0
  2  3  2  0  0  0  0
  3  4  1  0  0  0  0
  3 52  1  0  0  0  0
  4  5  1  0  0  0  0
  5  6  1  6  0  0  0
  5 48  1  0  0  0  0
  6  7  1  0  0  0  0
  7  8  2  0  0  0  0
  7 12  1  0  0  0  0
  8  9  1  0  0  0  0
  8 25  1  0  0  0  0
  9 10  1  0  0  0  0
 10 11  2  0  0  0  0
 10 21  1  0  0  0  0
 11 12  1  0  0  0  0
 11 13  1  0  0  0  0
 13 14  1  0  0  0  0
 13 19  1  0  0  0  0
 14 15  1  0  0  0  0
 15 16  2  0  0  0  0
 15 17  1  0  0  0  0
 17 18  1  0  0  0  0
 18 19  1  0  0  0  0
 19 20  2  0  0  0  0
 20 21  1  0  0  0  0
 20 22  1  0  0  0  0
 22 23  1  0  0  0  0
 22 24  1  0  0  0  0
 23 24  1  0  0  0  0
 25 26  2  0  0  0  0
 25 31  1  0  0  0  0
 26 27  1  0  0  0  0
 27 28  1  0  0  0  0
 27 29  2  0  0  0  0
 29 30  1  0  0  0  0
 30 31  2  0  0  0  0
 30 41  1  0  0  0  0
 31 32  1  0  0  0  0
 32 33  2  0  0  0  0
 33 34  1  0  0  0  0
 33 40  1  0  0  0  0
 34 35  2  0  0  0  0
 34 36  1  0  0  0  0
 36 37  2  0  0  0  0
 38 36  1  1  0  0  0
 38 39  1  0  0  0  0
 38 43  1  0  0  0  0
 39 40  1  0  0  0  0
 40 41  2  0  0  0  0
 41 42  1  0  0  0  0
 43 44  1  1  0  0  0
 43 45  1  0  0  0  0
 43 46  1  0  0  0  0
 45 46  1  0  0  0  0
 46 47  2  0  0  0  0
 48 49  2  0  0  0  0
 48 50  1  0  0  0  0
 50 51  2  0  0  0  0
 50 52  1  0  0  0  0
 52 53  2  0  0  0  0
M  CHG  2  21   1  31   1
M  END
$$$$