
 OpenBabel11242023043D

 53 61  0  0  1  0  0  0  0  0999 V2000
    5.1708   -4.0819   -1.3351 O   0  0  0  0  0  0  0  0  0  0  0  0
    5.2788   -2.8896   -0.6612 C   0  0  0  0  0  0  0  0  0  0  0  0
    4.4604   -2.5419    0.3393 C   0  0  0  0  0  0  0  0  0  0  0  0
    3.4108   -3.3590    0.7273 O   0  0  0  0  0  0  0  0  0  0  0  0
    3.1610   -3.3335    2.1326 C   0  0  2  0  0  0  0  0  0  0  0  0
    2.1501   -4.3094    2.4957 O   0  0  0  0  0  0  0  0  0  0  0  0
    2.4147   -5.6583    2.2785 C   0  0  0  0  0  0  0  0  0  0  0  0
    1.5006   -6.6041    2.5893 C   0  0  0  0  0  0  0  0  0  0  0  0
    1.7072   -7.9725    2.3594 O   0  0  0  0  0  0  0  0  0  0  0  0
    2.9421   -8.4140    1.8619 C   0  0  0  0  0  0  0  0  0  0  0  0
    3.9232   -7.5399    1.5794 C   0  0  0  0  0  0  0  0  0  0  0  0
    3.7481   -6.0613    1.7075 C   0  0  0  0  0  0  0  0  0  0  0  0
    5.2808   -7.9725    1.1054 C   0  0  3  0  0  0  0  0  0  0  0  0
    6.1985   -7.6211    2.1217 O   0  0  0  0  0  0  0  0  0  0  0  0
    7.5039   -7.9389    1.9015 C   0  0  0  0  0  0  0  0  0  0  0  0
    8.4048   -7.4200    2.5532 O   0  0  0  0  0  0  0  0  0  0  0  0
    7.7354   -8.8323    0.9151 O   0  0  0  0  0  0  0  0  0  0  0  0
    6.7564   -9.7984    0.5340 C   0  0  3  0  0  0  0  0  0  0  0  0
    5.3781   -9.4393    0.9657 C   0  0  0  0  0  0  0  0  0  0  0  0
    4.3478  -10.2733    1.2270 C   0  0  0  0  0  0  0  0  0  0  0  0
    3.1318   -9.7681    1.6795 O   0  3  0  0  0  0  0  0  0  0  0  0
    4.4121  -11.7486    1.0829 C   0  0  0  0  0  0  0  0  0  0  0  0
    4.1790  -12.5975    2.2150 O   0  0  0  0  0  0  0  0  0  0  0  0
    3.2081  -12.5345    1.1540 O   0  0  0  0  0  0  0  0  0  0  0  0
    6.6896   -9.8325   -0.8771 O   0  0  0  0  0  0  0  0  0  0  0  0
    0.1936   -6.2722    3.2073 C   0  0  0  0  0  0  0  0  0  0  0  0
   -0.8678   -5.9177    2.3756 C   0  0  0  0  0  0  0  0  0  0  0  0
   -2.0656   -5.6130    2.8887 N   0  3  0  0  0  0  0  0  0  0  0  0
   -3.0731   -5.2795    2.0589 F   0  0  0  0  0  0  0  0  0  0  0  0
   -2.3115   -5.6506    4.1823 N   0  0  0  0  0  0  0  0  0  0  0  0
   -1.3350   -5.9666    5.0373 C   0  0  0  0  0  0  0  0  0  0  0  0
   -0.0307   -6.2754    4.6055 C   0  0  0  0  0  0  0  0  0  0  0  0
    0.9573   -6.5575    5.5904 C   0  0  0  0  0  0  0  0  0  0  0  0
    0.6418   -6.5675    6.9597 C   0  0  0  0  0  0  0  0  0  0  0  0
    1.6529   -6.7946    8.0077 C   0  0  0  0  0  0  0  0  0  0  0  0
    2.9349   -6.8441    7.8359 N   0  0  0  0  0  0  0  0  0  0  0  0
    1.1418   -6.9352    9.4182 C   0  0  0  0  0  0  0  0  0  0  0  0
    1.9517   -6.7963   10.4198 N   0  0  0  0  0  0  0  0  0  0  0  0
   -0.3252   -7.2338    9.5529 C   0  0  1  0  0  0  0  0  0  0  0  0
   -1.1076   -6.4238    8.6547 O   0  0  0  0  0  0  0  0  0  0  0  0
   -0.6695   -6.3460    7.3617 C   0  0  0  0  0  0  0  0  0  0  0  0
   -1.6229   -6.0136    6.3990 C   0  0  0  0  0  0  0  0  0  0  0  0
   -2.8801   -5.7550    6.7945 F   0  0  0  0  0  0  0  0  0  0  0  0
   -0.6143   -8.6946    9.3496 C   0  0  0  0  0  0  0  0  0  0  0  0
   -0.2852   -9.2981    8.0845 O   0  0  0  0  0  0  0  0  0  0  0  0
   -0.5079   -9.5301   10.4966 O   0  0  0  0  0  0  0  0  0  0  0  0
   -1.8079   -9.1750    9.9631 O   0  0  0  0  0  0  0  0  0  0  0  0
    2.6874   -1.9471    2.5424 C   0  0  0  0  0  0  0  0  0  0  0  0
    1.7850   -1.7272    3.3369 O   0  0  0  0  0  0  0  0  0  0  0  0
    3.4835   -0.8383    1.8806 C   0  0  0  0  0  0  0  0  0  0  0  0
    3.1491    0.3267    1.9980 O   0  0  0  0  0  0  0  0  0  0  0  0
    4.6614   -1.2263    1.0071 C   0  0  0  0  0  0  0  0  0  0  0  0
    5.6745   -0.5588    0.9298 O   0  0  0  0  0  0  0  0  0  0  0  0
  1  2  1  0  0  0  0
  2  3  2  0  0  0  0
  3  4  1  0  0  0  0
  3 52  1  0  0  0  0
  4  5  1  0  0  0  0
  5  6  1  6  0  0  0
  5 48  1  0  0  0  0
  6  7  1  0  0  0  0
  7  8  2  0  0  0  0
  7 12  1  0  0  0  0
  8  9  1  0  0  0  0
  8 26  1  0  0  0  0
  9 10  1  0  0  0  0
 10 11  2  0  0  0  0
 10 21  1  0  0  0  0
 11 12  1  0  0  0  0
 11 13  1  0  0  0  0
 13 14  1  0  0  0  0
 13 19  1  0  0  0  0
 14 15  1  0  0  0  0
 15 16  2  0  0  0  0
 15 17  1  0  0  0  0
 17 18  1  0  0  0  0
 18 19  1  0  0  0  0
 18 25  1  0  0  0  0
 19 20  2  0  0  0  0
 20 21  1  0  0  0  0
 20 22  1  0  0  0  0
 22 23  1  0  0  0  0
 22 24  1  0  0  0  0
 23 24  1  0  0  0  0
 26 27  2  0  0  0  0
 26 32  1  0  0  0  0
 27 28  1  0  0  0  0
 28 29  1  0  0  0  0
 28 30  2  0  0  0  0
 30 31  1  0  0  0  0
 31 32  2  0  0  0  0
 31 42  1  0  0  0  0
 32 33  1  0  0  0  0
 33 34  2  0  0  0  0
 34 35  1  0  0  0  0
 34 41  1  0  0  0  0
 35 36  2  0  0  0  0
 35 37  1  0  0  0  0
 37 38  2  0  0  0  0
 37 39  1  0  0  0  0
 39 40  1  0  0  0  0
 39 44  1  6  0  0  0
 40 41  1  0  0  0  0
 41 42  2  0  0  0  0
 42 43  1  0  0  0  0
 44 45  1  0  0  0  0
 44 46  1  0  0  0  0
 44 47  1  0  0  0  0
 46 47  1  0  0  0  0
 48 49  2  0  0  0  0
 48 50  1  0  0  0  0
 50 51  2  0  0  0  0
 50 52  1  0  0  0  0
 52 53  2  0  0  0  0
M  CHG  2  21   1  28   1
M  END
$$$$