
 OpenBabel11152013343D

 54 62  0  0  1  0  0  0  0  0999 V2000
   -0.0118    4.8422   -5.8071 O   0  0  0  0  0  0  0  0  0  0  0  0
   -0.7127    3.9333   -5.0571 C   0  0  0  0  0  0  0  0  0  0  0  0
   -0.2141    3.3507   -3.9586 C   0  0  0  0  0  0  0  0  0  0  0  0
    1.0724    3.6164   -3.5318 O   0  0  0  0  0  0  0  0  0  0  0  0
    1.2688    3.4372   -2.1251 C   0  0  2  0  0  0  0  0  0  0  0  0
    2.5537    3.9156   -1.7063 O   0  0  0  0  0  0  0  0  0  0  0  0
    2.7931    5.2871   -1.8322 C   0  0  0  0  0  0  0  0  0  0  0  0
    3.9749    5.8413   -1.4745 C   0  0  0  0  0  0  0  0  0  0  0  0
    4.2215    7.2144   -1.5564 O   0  0  0  0  0  0  0  0  0  0  0  0
    3.1704    8.0947   -1.8005 C   0  0  0  0  0  0  0  0  0  0  0  0
    1.9469    7.6469   -2.1118 C   0  0  0  0  0  0  0  0  0  0  0  0
    1.6652    6.1916   -2.2745 C   0  0  0  0  0  0  0  0  0  0  0  0
    0.7864    8.5722   -2.2980 C   0  0  3  0  0  0  0  0  0  0  0  0
   -0.1864    8.2329   -1.3097 O   0  0  0  0  0  0  0  0  0  0  0  0
   -1.2162    9.0650   -1.0222 C   0  0  0  0  0  0  0  0  0  0  0  0
   -2.1405    8.7051   -0.3056 O   0  0  0  0  0  0  0  0  0  0  0  0
   -1.1693   10.3138   -1.5392 O   0  0  0  0  0  0  0  0  0  0  0  0
   -0.0746   10.8163   -2.2964 C   0  0  3  0  0  0  0  0  0  0  0  0
    1.1437    9.9934   -2.1258 C   0  0  0  0  0  0  0  0  0  0  0  0
    2.4024   10.3998   -1.8515 C   0  0  0  0  0  0  0  0  0  0  0  0
    3.4301    9.4555   -1.6845 O   0  0  0  0  0  0  0  0  0  0  0  0
    2.8390   11.8078   -1.7036 C   0  0  0  0  0  0  0  0  0  0  0  0
    3.3611   12.5383   -2.8283 O   0  0  0  0  0  0  0  0  0  0  0  0
    2.1197   12.9380   -2.2260 O   0  0  0  0  0  0  0  0  0  0  0  0
   -0.4275   10.7975   -3.6691 O   0  0  0  0  0  0  0  0  0  0  0  0
    5.0301    5.1171   -0.7386 C   0  0  0  0  0  0  0  0  0  0  0  0
    4.8762    5.2493    0.5992 N   0  0  0  0  0  0  0  0  0  0  0  0
    5.7355    4.7007    1.4037 N   0  0  0  0  0  0  0  0  0  0  0  0
    6.7496    4.0051    0.9663 N   0  0  0  0  0  0  0  0  0  0  0  0
    6.9514    3.8418   -0.3483 C   0  0  0  0  0  0  0  0  0  0  0  0
    6.0995    4.4116   -1.2976 C   0  0  0  0  0  0  0  0  0  0  0  0
    6.3860    4.2382   -2.6831 C   0  0  0  0  0  0  0  0  0  0  0  0
    7.4869    3.4690   -3.0941 C   0  0  0  0  0  0  0  0  0  0  0  0
    7.7947    3.2823   -4.5182 C   0  0  0  0  0  0  0  0  0  0  0  0
    7.1552    3.8452   -5.3920 O   0  0  0  0  0  0  0  0  0  0  0  0
    8.9396    2.3516   -4.8613 C   0  0  0  0  0  0  0  0  0  0  0  0
    9.4027    2.3112   -5.9928 O   0  0  0  0  0  0  0  0  0  0  0  0
    9.3888    1.4616   -3.7299 C   0  0  1  0  0  0  0  0  0  0  0  0
    9.3897    2.0876   -2.4409 O   0  0  0  0  0  0  0  0  0  0  0  0
    8.3056    2.8706   -2.1511 C   0  0  0  0  0  0  0  0  0  0  0  0
    8.0378    3.0797   -0.7961 C   0  0  0  0  0  0  0  0  0  0  0  0
    8.8697    2.4859    0.1310 O   0  0  0  0  0  0  0  0  0  0  0  0
    8.6110    0.1774   -3.6808 C   0  0  1  0  0  0  0  0  0  0  0  0
    7.1888    0.2787   -3.4650 O   0  0  0  0  0  0  0  0  0  0  0  0
    9.0035   -0.8532   -4.5853 O   0  0  0  0  0  0  0  0  0  0  0  0
    9.2784   -1.0585   -3.2819 C   0  0  0  0  0  0  0  0  0  0  0  0
   10.3303   -1.2650   -2.7264 O   0  0  0  0  0  0  0  0  0  0  0  0
    1.0494    1.9482   -1.8802 C   0  0  0  0  0  0  0  0  0  0  0  0
    1.9136    1.2074   -1.4113 O   0  0  0  0  0  0  0  0  0  0  0  0
   -0.3850    1.5365   -2.1521 C   0  0  3  0  0  0  0  0  0  0  0  0
   -1.0746    2.3709   -3.2205 C   0  0  0  0  0  0  0  0  0  0  0  0
   -2.2770    2.2878   -3.4745 O   0  0  0  0  0  0  0  0  0  0  0  0
   -1.1052    1.5574   -0.9902 F   0  0  0  0  0  0  0  0  0  0  0  0
   -0.3729   -0.2893   -2.8600 Br  0  0  0  0  0  0  0  0  0  0  0  0
  1  2  1  0  0  0  0
  2  3  2  0  0  0  0
  3  4  1  0  0  0  0
  3 51  1  0  0  0  0
  4  5  1  0  0  0  0
  5  6  1  6  0  0  0
  5 48  1  0  0  0  0
  6  7  1  0  0  0  0
  7  8  2  0  0  0  0
  7 12  1  0  0  0  0
  8  9  1  0  0  0  0
  8 26  1  0  0  0  0
  9 10  1  0  0  0  0
 10 11  2  0  0  0  0
 10 21  1  0  0  0  0
 11 12  1  0  0  0  0
 11 13  1  0  0  0  0
 13 14  1  0  0  0  0
 13 19  1  0  0  0  0
 14 15  1  0  0  0  0
 15 16  2  0  0  0  0
 15 17  1  0  0  0  0
 17 18  1  0  0  0  0
 18 19  1  0  0  0  0
 18 25  1  0  0  0  0
 19 20  2  0  0  0  0
 20 21  1  0  0  0  0
 20 22  1  0  0  0  0
 22 23  1  0  0  0  0
 22 24  1  0  0  0  0
 23 24  1  0  0  0  0
 26 27  2  0  0  0  0
 26 31  1  0  0  0  0
 27 28  1  0  0  0  0
 28 29  2  0  0  0  0
 29 30  1  0  0  0  0
 30 31  2  0  0  0  0
 30 41  1  0  0  0  0
 31 32  1  0  0  0  0
 32 33  2  0  0  0  0
 33 34  1  0  0  0  0
 33 40  1  0  0  0  0
 34 35  2  0  0  0  0
 34 36  1  0  0  0  0
 36 37  2  0  0  0  0
 38 36  1  6  0  0  0
 38 39  1  0  0  0  0
 38 43  1  0  0  0  0
 39 40  1  0  0  0  0
 40 41  2  0  0  0  0
 41 42  1  0  0  0  0
 43 44  1  1  0  0  0
 43 45  1  0  0  0  0
 43 46  1  0  0  0  0
 45 46  1  0  0  0  0
 46 47  2  0  0  0  0
 48 49  2  0  0  0  0
 48 50  1  0  0  0  0
 50 51  1  0  0  0  0
 50 53  1  0  0  0  0
 50 54  1  0  0  0  0
 51 52  2  0  0  0  0
M  END
$$$$