
 OpenBabel11172005353D

 52 61  0  0  1  0  0  0  0  0999 V2000
    4.5038   -5.4279   12.3270 O   0  0  0  0  0  0  0  0  0  0  0  0
    5.3573   -5.3214   13.3941 C   0  0  0  0  0  0  0  0  0  0  0  0
    6.1496   -6.3235   13.7934 C   0  0  0  0  0  0  0  0  0  0  0  0
    6.1003   -7.5644   13.1913 O   0  0  0  0  0  0  0  0  0  0  0  0
    7.3885   -8.1067   12.9152 C   0  0  2  0  0  0  0  0  0  0  0  0
    7.2780   -9.3503   12.2051 O   0  0  0  0  0  0  0  0  0  0  0  0
    6.6319   -9.3023   10.9756 C   0  0  0  0  0  0  0  0  0  0  0  0
    5.9433  -10.3631   10.5038 C   0  0  0  0  0  0  0  0  0  0  0  0
    5.3024  -10.3701    9.2675 O   0  0  0  0  0  0  0  0  0  0  0  0
    5.5122   -9.3100    8.3959 C   0  0  0  0  0  0  0  0  0  0  0  0
    6.2591   -8.2460    8.7394 C   0  0  0  0  0  0  0  0  0  0  0  0
    6.8088   -8.0779   10.1164 C   0  0  0  0  0  0  0  0  0  0  0  0
    6.4961   -7.1477    7.7433 C   0  0  3  0  0  0  0  0  0  0  0  0
    7.8680   -6.6632    7.8571 O   0  0  0  0  0  0  0  0  0  0  0  0
    8.2503   -5.6744    6.9776 C   0  0  0  0  0  0  0  0  0  0  0  0
    9.3111   -5.0759    7.0415 O   0  0  0  0  0  0  0  0  0  0  0  0
    7.2192   -5.4124    5.9567 C   0  0  3  0  0  0  0  0  0  0  0  0
    7.0490   -6.9021    5.3015 C   0  0  3  0  0  0  0  0  0  0  0  0
    6.1863   -7.5655    6.2950 C   0  0  0  0  0  0  0  0  0  0  0  0
    5.3718   -8.6209    6.0621 C   0  0  0  0  0  0  0  0  0  0  0  0
    4.9380   -9.3853    7.1432 N   0  0  0  0  0  0  0  0  0  0  0  0
    4.9904   -9.0806    4.7054 C   0  0  0  0  0  0  0  0  0  0  0  0
    5.7613  -10.0586    3.9918 O   0  0  0  0  0  0  0  0  0  0  0  0
    4.4393  -10.3869    4.4628 O   0  0  0  0  0  0  0  0  0  0  0  0
    7.1638   -5.6962    4.5875 O   0  0  0  0  0  0  0  0  0  0  0  0
    5.8609  -11.6391   11.2309 C   0  0  0  0  0  0  0  0  0  0  0  0
    6.8301  -12.5977   10.9738 C   0  0  0  0  0  0  0  0  0  0  0  0
    6.8657  -13.7869   11.6004 N   0  0  0  0  0  0  0  0  0  0  0  0
    5.9256  -14.0686   12.5467 N   0  0  0  0  0  0  0  0  0  0  0  0
    4.9664  -13.1840   12.8519 C   0  0  0  0  0  0  0  0  0  0  0  0
    4.8807  -11.9360   12.1999 C   0  0  0  0  0  0  0  0  0  0  0  0
    3.8295  -11.0582   12.5483 C   0  0  0  0  0  0  0  0  0  0  0  0
    2.9078  -11.4117   13.5374 C   0  0  0  0  0  0  0  0  0  0  0  0
    3.0222  -12.6224   14.2051 C   0  0  0  0  0  0  0  0  0  0  0  0
    4.0406  -13.5030   13.8404 C   0  0  0  0  0  0  0  0  0  0  0  0
    2.2001  -13.0403   15.2124 O   0  0  0  0  0  0  0  0  0  0  0  0
    1.3258  -12.0659   15.7969 C   0  0  2  0  0  0  0  0  0  0  0  0
    0.7761  -11.0485   14.8318 C   0  0  0  0  0  0  0  0  0  0  0  0
   -0.3729  -10.6322   14.8247 O   0  0  0  0  0  0  0  0  0  0  0  0
    1.8045  -10.5073   13.8734 C   0  0  0  0  0  0  0  0  0  0  0  0
    1.7184   -9.3764   13.4237 O   0  0  0  0  0  0  0  0  0  0  0  0
    1.9902  -11.3933   16.9652 C   0  0  1  0  0  0  0  0  0  0  0  0
    3.2182  -10.6790   16.7038 O   0  0  0  0  0  0  0  0  0  0  0  0
    1.1227  -10.7126   17.8755 O   0  0  0  0  0  0  0  0  0  0  0  0
    1.7152  -11.8315   18.3248 C   0  0  0  0  0  0  0  0  0  0  0  0
    1.2183  -12.8461   18.7749 O   0  0  0  0  0  0  0  0  0  0  0  0
    8.1763   -8.3418   14.1962 C   0  0  0  0  0  0  0  0  0  0  0  0
    8.9251   -9.2835   14.4146 O   0  0  0  0  0  0  0  0  0  0  0  0
    8.0339   -7.2207   15.1999 C   0  0  0  0  0  0  0  0  0  0  0  0
    8.7098   -7.2179   16.2179 O   0  0  0  0  0  0  0  0  0  0  0  0
    7.0741   -6.0807   14.9314 C   0  0  0  0  0  0  0  0  0  0  0  0
    7.0984   -5.0491   15.5820 O   0  0  0  0  0  0  0  0  0  0  0  0
  1  2  1  0  0  0  0
  2  3  2  0  0  0  0
  3  4  1  0  0  0  0
  3 51  1  0  0  0  0
  4  5  1  0  0  0  0
  5  6  1  1  0  0  0
  5 47  1  0  0  0  0
  6  7  1  0  0  0  0
  7  8  2  0  0  0  0
  7 12  1  0  0  0  0
  8  9  1  0  0  0  0
  8 26  1  0  0  0  0
  9 10  1  0  0  0  0
 10 11  2  0  0  0  0
 10 21  1  0  0  0  0
 11 12  1  0  0  0  0
 11 13  1  0  0  0  0
 13 14  1  0  0  0  0
 13 19  1  0  0  0  0
 14 15  1  0  0  0  0
 15 16  2  0  0  0  0
 15 17  1  0  0  0  0
 17 18  1  0  0  0  0
 17 25  1  0  0  0  0
 18 19  1  0  0  0  0
 18 25  1  0  0  0  0
 19 20  2  0  0  0  0
 20 21  1  0  0  0  0
 20 22  1  0  0  0  0
 22 23  1  0  0  0  0
 22 24  1  0  0  0  0
 23 24  1  0  0  0  0
 26 27  2  0  0  0  0
 26 31  1  0  0  0  0
 27 28  1  0  0  0  0
 28 29  2  0  0  0  0
 29 30  1  0  0  0  0
 30 31  2  0  0  0  0
 30 35  1  0  0  0  0
 31 32  1  0  0  0  0
 32 33  2  0  0  0  0
 33 34  1  0  0  0  0
 33 40  1  0  0  0  0
 34 35  2  0  0  0  0
 34 36  1  0  0  0  0
 37 36  1  6  0  0  0
 37 38  1  0  0  0  0
 37 42  1  0  0  0  0
 38 39  2  0  0  0  0
 38 40  1  0  0  0  0
 40 41  2  0  0  0  0
 42 43  1  6  0  0  0
 42 44  1  0  0  0  0
 42 45  1  0  0  0  0
 44 45  1  0  0  0  0
 45 46  2  0  0  0  0
 47 48  2  0  0  0  0
 47 49  1  0  0  0  0
 49 50  2  0  0  0  0
 49 51  1  0  0  0  0
 51 52  2  0  0  0  0
M  END
$$$$