
 OpenBabel11252023593D

 54 62  0  0  1  0  0  0  0  0999 V2000
    3.7577    1.6733    0.4463 O   0  0  0  0  0  0  0  0  0  0  0  0
    2.4168    1.9405    0.5380 C   0  0  0  0  0  0  0  0  0  0  0  0
    1.6802    2.3693   -0.4961 C   0  0  0  0  0  0  0  0  0  0  0  0
    2.2498    2.6473   -1.7261 O   0  0  0  0  0  0  0  0  0  0  0  0
    1.4618    2.2025   -2.8033 C   0  0  2  0  0  0  0  0  0  0  0  0
    2.0878    2.5285   -4.0875 O   0  0  0  0  0  0  0  0  0  0  0  0
    2.1117    3.8475   -4.5430 C   0  0  0  0  0  0  0  0  0  0  0  0
    2.1760    4.0896   -5.8688 C   0  0  0  0  0  0  0  0  0  0  0  0
    2.2301    5.3824   -6.4159 O   0  0  0  0  0  0  0  0  0  0  0  0
    2.2391    6.5036   -5.5549 C   0  0  0  0  0  0  0  0  0  0  0  0
    2.1759    6.3408   -4.2161 C   0  0  0  0  0  0  0  0  0  0  0  0
    2.0920    4.9903   -3.5567 C   0  0  0  0  0  0  0  0  0  0  0  0
    2.1466    7.5181   -3.2627 C   0  0  3  0  0  0  0  0  0  0  0  0
    3.2215    7.3766   -2.3554 O   0  0  0  0  0  0  0  0  0  0  0  0
    3.4335    8.4177   -1.5183 C   0  0  0  0  0  0  0  0  0  0  0  0
    4.1590    8.2497   -0.4826 N   0  0  0  0  0  0  0  0  0  0  0  0
    2.8887    9.6187   -1.8040 O   0  0  0  0  0  0  0  0  0  0  0  0
    2.4317    9.9069   -3.0343 C   0  0  0  0  0  0  0  0  0  0  0  0
    2.0709   11.0191   -3.3861 O   0  0  0  0  0  0  0  0  0  0  0  0
    2.3478    8.7876   -3.9710 C   0  0  0  0  0  0  0  0  0  0  0  0
    2.4278    8.9072   -5.3117 C   0  0  0  0  0  0  0  0  0  0  0  0
    2.3147    7.7734   -6.1124 O   0  3  0  0  0  0  0  0  0  0  0  0
    2.6258   10.1831   -6.0494 C   0  0  0  0  0  0  0  0  0  0  0  0
    2.7049   10.1618   -7.4896 O   0  0  0  0  0  0  0  0  0  0  0  0
    1.5663   10.7466   -6.8320 O   0  0  0  0  0  0  0  0  0  0  0  0
    2.2523    2.9473   -6.8262 C   0  0  0  0  0  0  0  0  0  0  0  0
    3.5132    2.5825   -7.1488 N   0  0  0  0  0  0  0  0  0  0  0  0
    3.6608    1.5000   -7.8901 N   0  3  0  0  0  0  0  0  0  0  0  0
    4.9108    1.0972   -8.2047 F   0  0  0  0  0  0  0  0  0  0  0  0
    2.6449    0.8004   -8.3443 N   0  0  0  0  0  0  0  0  0  0  0  0
    1.4003    1.1824   -8.0234 C   0  0  0  0  0  0  0  0  0  0  0  0
    1.1412    2.2848   -7.2431 N   0  3  0  0  0  0  0  0  0  0  0  0
   -0.1396    2.6316   -6.9421 C   0  0  0  0  0  0  0  0  0  0  0  0
   -1.2173    1.8747   -7.3995 C   0  0  0  0  0  0  0  0  0  0  0  0
   -2.5700    2.2682   -7.0400 C   0  0  0  0  0  0  0  0  0  0  0  0
   -2.7242    3.3247   -6.4542 O   0  0  0  0  0  0  0  0  0  0  0  0
   -3.6962    1.3502   -7.4543 C   0  0  0  0  0  0  0  0  0  0  0  0
   -4.8429    1.7613   -7.4503 O   0  0  0  0  0  0  0  0  0  0  0  0
   -3.2549   -0.0512   -7.8340 C   0  0  1  0  0  0  0  0  0  0  0  0
   -2.0049   -0.0806   -8.5719 O   0  0  0  0  0  0  0  0  0  0  0  0
   -1.0074    0.7544   -8.1656 C   0  0  0  0  0  0  0  0  0  0  0  0
    0.3077    0.4370   -8.4922 C   0  0  0  0  0  0  0  0  0  0  0  0
    0.5522   -0.6386   -9.2536 F   0  0  0  0  0  0  0  0  0  0  0  0
   -3.2502   -0.9680   -6.6317 C   0  0  1  0  0  0  0  0  0  0  0  0
   -4.5057   -1.1549   -5.9639 O   0  0  0  0  0  0  0  0  0  0  0  0
   -2.4037   -2.1159   -6.7077 O   0  0  0  0  0  0  0  0  0  0  0  0
   -2.0638   -1.1820   -5.7980 C   0  0  0  0  0  0  0  0  0  0  0  0
   -1.0503   -0.5225   -5.6807 O   0  0  0  0  0  0  0  0  0  0  0  0
    0.0059    2.6660   -2.8054 C   0  0  0  0  0  0  0  0  0  0  0  0
   -0.5636    2.8960   -3.8825 O   0  0  0  0  0  0  0  0  0  0  0  0
   -0.6509    2.8662   -1.4640 C   0  0  3  0  0  0  0  0  0  0  0  0
    0.2166    2.5767   -0.2638 C   0  0  0  0  0  0  0  0  0  0  0  0
   -0.2556    2.5298    0.8689 O   0  0  0  0  0  0  0  0  0  0  0  0
   -1.1527    4.1362   -1.4015 F   0  0  0  0  0  0  0  0  0  0  0  0
  1  2  1  0  0  0  0
  2  3  2  0  0  0  0
  3  4  1  0  0  0  0
  3 52  1  0  0  0  0
  4  5  1  0  0  0  0
  5  6  1  6  0  0  0
  5 49  1  0  0  0  0
  6  7  1  0  0  0  0
  7  8  2  0  0  0  0
  7 12  1  0  0  0  0
  8  9  1  0  0  0  0
  8 26  1  0  0  0  0
  9 10  1  0  0  0  0
 10 11  2  0  0  0  0
 10 22  1  0  0  0  0
 11 12  1  0  0  0  0
 11 13  1  0  0  0  0
 13 14  1  0  0  0  0
 13 20  1  0  0  0  0
 14 15  1  0  0  0  0
 15 16  2  0  0  0  0
 15 17  1  0  0  0  0
 17 18  1  0  0  0  0
 18 19  2  0  0  0  0
 18 20  1  0  0  0  0
 20 21  2  0  0  0  0
 21 22  1  0  0  0  0
 21 23  1  0  0  0  0
 23 24  1  0  0  0  0
 23 25  1  0  0  0  0
 24 25  1  0  0  0  0
 26 27  2  0  0  0  0
 26 32  1  0  0  0  0
 27 28  1  0  0  0  0
 28 29  1  0  0  0  0
 28 30  2  0  0  0  0
 30 31  1  0  0  0  0
 31 32  2  0  0  0  0
 31 42  1  0  0  0  0
 32 33  1  0  0  0  0
 33 34  2  0  0  0  0
 34 35  1  0  0  0  0
 34 41  1  0  0  0  0
 35 36  2  0  0  0  0
 35 37  1  0  0  0  0
 37 38  2  0  0  0  0
 39 37  1  1  0  0  0
 39 40  1  0  0  0  0
 39 44  1  0  0  0  0
 40 41  1  0  0  0  0
 41 42  2  0  0  0  0
 42 43  1  0  0  0  0
 44 45  1  1  0  0  0
 44 46  1  0  0  0  0
 44 47  1  0  0  0  0
 46 47  1  0  0  0  0
 47 48  2  0  0  0  0
 49 50  2  0  0  0  0
 49 51  1  0  0  0  0
 51 52  1  0  0  0  0
 51 54  1  0  0  0  0
 52 53  2  0  0  0  0
M  CHG  3  22   1  28   1  32   1
M  END
$$$$