
 OpenBabel11212021123D

 53 61  0  0  1  0  0  0  0  0999 V2000
    2.5310    1.8104    5.8289 O   0  0  0  0  0  0  0  0  0  0  0  0
    3.1862    1.0618    4.8849 C   0  0  0  0  0  0  0  0  0  0  0  0
    3.1092    1.3326    3.5769 C   0  0  0  0  0  0  0  0  0  0  0  0
    2.3139    2.3742    3.1288 O   0  0  0  0  0  0  0  0  0  0  0  0
    2.7728    3.0076    1.9414 C   0  0  2  0  0  0  0  0  0  0  0  0
    1.8922    4.0772    1.5561 O   0  0  0  0  0  0  0  0  0  0  0  0
    1.7441    5.1092    2.4719 C   0  0  0  0  0  0  0  0  0  0  0  0
    0.5881    5.8004    2.5395 C   0  0  0  0  0  0  0  0  0  0  0  0
    0.4054    6.9149    3.3482 O   0  0  0  0  0  0  0  0  0  0  0  0
    1.5052    7.4456    4.0134 C   0  0  0  0  0  0  0  0  0  0  0  0
    2.6988    6.8307    3.9954 C   0  0  0  0  0  0  0  0  0  0  0  0
    2.9352    5.5332    3.3001 C   0  0  0  0  0  0  0  0  0  0  0  0
    3.8432    7.4981    4.6752 C   0  0  0  0  0  0  0  0  0  0  0  0
    5.0159    6.9575    4.6594 N   0  0  0  0  0  0  0  0  0  0  0  0
    6.0637    7.6082    5.2833 C   0  0  0  0  0  0  0  0  0  0  0  0
    7.1692    7.0861    5.2352 O   0  0  0  0  0  0  0  0  0  0  0  0
    5.9242    8.8116    5.9463 N   0  0  0  0  0  0  0  0  0  0  0  0
    4.7666    9.3753    5.9744 C   0  0  0  0  0  0  0  0  0  0  0  0
    3.5834    8.7928    5.3411 C   0  0  0  0  0  0  0  0  0  0  0  0
    2.3430    9.3201    5.3223 C   0  0  0  0  0  0  0  0  0  0  0  0
    1.3255    8.6367    4.6667 N   0  0  0  0  0  0  0  0  0  0  0  0
    1.9607   10.6106    5.9443 C   0  0  0  0  0  0  0  0  0  0  0  0
    2.0450   11.8459    5.2177 O   0  0  0  0  0  0  0  0  0  0  0  0
    0.7567   11.3029    5.5645 O   0  0  0  0  0  0  0  0  0  0  0  0
   -0.5557    5.4958    1.6681 C   0  0  0  0  0  0  0  0  0  0  0  0
   -0.6140    6.1667    0.4550 C   0  0  0  0  0  0  0  0  0  0  0  0
   -1.5989    5.9175   -0.4075 N   0  3  0  0  0  0  0  0  0  0  0  0
   -1.6300    6.5849   -1.5762 F   0  0  0  0  0  0  0  0  0  0  0  0
   -2.5494    5.0379   -0.1630 N   0  0  0  0  0  0  0  0  0  0  0  0
   -2.5427    4.3319    0.9779 C   0  0  0  0  0  0  0  0  0  0  0  0
   -1.5474    4.5392    1.9538 C   0  0  0  0  0  0  0  0  0  0  0  0
   -1.5795    3.7792    3.1463 C   0  0  0  0  0  0  0  0  0  0  0  0
   -2.5514    2.7917    3.3437 C   0  0  0  0  0  0  0  0  0  0  0  0
   -2.5320    1.9715    4.5611 C   0  0  0  0  0  0  0  0  0  0  0  0
   -1.7476    2.1963    5.4670 O   0  0  0  0  0  0  0  0  0  0  0  0
   -3.5210    0.8328    4.6298 C   0  0  0  0  0  0  0  0  0  0  0  0
   -3.8151    0.3229    5.7000 O   0  0  0  0  0  0  0  0  0  0  0  0
   -4.0677    0.4077    3.2896 C   0  0  1  0  0  0  0  0  0  0  0  0
   -4.4199    1.5290    2.4598 O   0  0  0  0  0  0  0  0  0  0  0  0
   -3.5116    2.5501    2.3725 C   0  0  0  0  0  0  0  0  0  0  0  0
   -3.5201    3.3500    1.2178 C   0  0  0  0  0  0  0  0  0  0  0  0
   -4.8664    3.0449   -0.1100 Br  0  0  0  0  0  0  0  0  0  0  0  0
   -3.1805   -0.6039    2.6027 C   0  0  1  0  0  0  0  0  0  0  0  0
   -2.9693   -1.8396    3.3111 O   0  0  0  0  0  0  0  0  0  0  0  0
   -3.3868   -0.7542    1.1887 O   0  0  0  0  0  0  0  0  0  0  0  0
   -2.1967   -0.2876    1.5835 C   0  0  0  0  0  0  0  0  0  0  0  0
   -1.5881    0.7309    1.3082 O   0  0  0  0  0  0  0  0  0  0  0  0
    2.7996    1.9909    0.8208 C   0  0  0  0  0  0  0  0  0  0  0  0
    2.2074    2.0705   -0.2450 O   0  0  0  0  0  0  0  0  0  0  0  0
    3.6760    0.8174    1.1671 C   0  0  0  0  0  0  0  0  0  0  0  0
    4.2707    0.2229    0.2838 O   0  0  0  0  0  0  0  0  0  0  0  0
    3.8541    0.4503    2.6290 C   0  0  0  0  0  0  0  0  0  0  0  0
    4.5600   -0.4815    2.9742 O   0  0  0  0  0  0  0  0  0  0  0  0
  1  2  1  0  0  0  0
  2  3  2  0  0  0  0
  3  4  1  0  0  0  0
  3 52  1  0  0  0  0
  4  5  1  0  0  0  0
  5  6  1  6  0  0  0
  5 48  1  0  0  0  0
  6  7  1  0  0  0  0
  7  8  2  0  0  0  0
  7 12  1  0  0  0  0
  8  9  1  0  0  0  0
  8 25  1  0  0  0  0
  9 10  1  0  0  0  0
 10 11  2  0  0  0  0
 10 21  1  0  0  0  0
 11 12  1  0  0  0  0
 11 13  1  0  0  0  0
 13 14  2  0  0  0  0
 13 19  1  0  0  0  0
 14 15  1  0  0  0  0
 15 16  2  0  0  0  0
 15 17  1  0  0  0  0
 17 18  2  0  0  0  0
 18 19  1  0  0  0  0
 19 20  2  0  0  0  0
 20 21  1  0  0  0  0
 20 22  1  0  0  0  0
 22 23  1  0  0  0  0
 22 24  1  0  0  0  0
 23 24  1  0  0  0  0
 25 26  2  0  0  0  0
 25 31  1  0  0  0  0
 26 27  1  0  0  0  0
 27 28  1  0  0  0  0
 27 29  2  0  0  0  0
 29 30  1  0  0  0  0
 30 31  2  0  0  0  0
 30 41  1  0  0  0  0
 31 32  1  0  0  0  0
 32 33  2  0  0  0  0
 33 34  1  0  0  0  0
 33 40  1  0  0  0  0
 34 35  2  0  0  0  0
 34 36  1  0  0  0  0
 36 37  2  0  0  0  0
 38 36  1  1  0  0  0
 38 39  1  0  0  0  0
 38 43  1  0  0  0  0
 39 40  1  0  0  0  0
 40 41  2  0  0  0  0
 41 42  1  0  0  0  0
 43 44  1  1  0  0  0
 43 45  1  0  0  0  0
 43 46  1  0  0  0  0
 45 46  1  0  0  0  0
 46 47  2  0  0  0  0
 48 49  2  0  0  0  0
 48 50  1  0  0  0  0
 50 51  2  0  0  0  0
 50 52  1  0  0  0  0
 52 53  2  0  0  0  0
M  CHG  1  27   1
M  END
$$$$