
 OpenBabel11262000083D

 54 62  0  0  1  0  0  0  0  0999 V2000
   -0.0177    2.9150   -1.5431 O   0  0  0  0  0  0  0  0  0  0  0  0
    1.0386    2.4925   -0.7742 C   0  0  0  0  0  0  0  0  0  0  0  0
    1.9394    1.6063   -1.2132 C   0  0  0  0  0  0  0  0  0  0  0  0
    1.8189    1.0407   -2.4721 O   0  0  0  0  0  0  0  0  0  0  0  0
    3.0675    1.0425   -3.1282 C   0  0  2  0  0  0  0  0  0  0  0  0
    2.8979    0.5386   -4.4829 O   0  0  0  0  0  0  0  0  0  0  0  0
    2.5888    1.4223   -5.5061 C   0  0  0  0  0  0  0  0  0  0  0  0
    2.4299    0.9709   -6.7698 C   0  0  0  0  0  0  0  0  0  0  0  0
    2.2449    1.8380   -7.8642 O   0  0  0  0  0  0  0  0  0  0  0  0
    2.2981    3.2376   -7.6653 C   0  0  0  0  0  0  0  0  0  0  0  0
    2.4056    3.7531   -6.4243 C   0  0  0  0  0  0  0  0  0  0  0  0
    2.5061    2.8961   -5.2019 C   0  0  0  0  0  0  0  0  0  0  0  0
    2.4845    5.2434   -6.1657 C   0  0  3  0  0  0  0  0  0  0  0  0
    3.6998    5.5025   -5.4832 O   0  0  0  0  0  0  0  0  0  0  0  0
    4.0055    6.8051   -5.2868 C   0  0  0  0  0  0  0  0  0  0  0  0
    4.8826    7.1209   -4.4159 N   0  0  0  0  0  0  0  0  0  0  0  0
    3.3818    7.7451   -6.0248 O   0  0  0  0  0  0  0  0  0  0  0  0
    2.7138    7.4302   -7.1477 C   0  0  0  0  0  0  0  0  0  0  0  0
    2.2185    8.2575   -7.8965 O   0  0  0  0  0  0  0  0  0  0  0  0
    2.5321    6.0042   -7.4215 C   0  0  0  0  0  0  0  0  0  0  0  0
    2.4188    5.4518   -8.6480 C   0  0  0  0  0  0  0  0  0  0  0  0
    2.2548    4.0713   -8.7712 O   0  3  0  0  0  0  0  0  0  0  0  0
    2.5145    6.1696   -9.9490 C   0  0  0  0  0  0  0  0  0  0  0  0
    3.5445    5.8058  -10.8831 O   0  0  0  0  0  0  0  0  0  0  0  0
    2.1749    5.4711  -11.1653 O   0  0  0  0  0  0  0  0  0  0  0  0
    2.5450   -0.4888   -7.0917 C   0  0  0  0  0  0  0  0  0  0  0  0
    3.8090   -0.8973   -7.3912 N   0  0  0  0  0  0  0  0  0  0  0  0
    4.0185   -2.1934   -7.5991 N   0  3  0  0  0  0  0  0  0  0  0  0
    5.2684   -2.6096   -7.8922 F   0  0  0  0  0  0  0  0  0  0  0  0
    3.0335   -3.0938   -7.5382 C   0  0  0  0  0  0  0  0  0  0  0  0
    1.7283   -2.6827   -7.2592 C   0  0  0  0  0  0  0  0  0  0  0  0
    1.4699   -1.3397   -7.0463 N   0  3  0  0  0  0  0  0  0  0  0  0
    0.1863   -0.9468   -6.8007 C   0  0  0  0  0  0  0  0  0  0  0  0
   -0.8531   -1.8804   -6.7126 C   0  0  0  0  0  0  0  0  0  0  0  0
   -2.1962   -1.4227   -6.3896 C   0  0  0  0  0  0  0  0  0  0  0  0
   -2.4003   -0.2223   -6.3542 O   0  0  0  0  0  0  0  0  0  0  0  0
   -3.2424   -2.4828   -6.1220 C   0  0  0  0  0  0  0  0  0  0  0  0
   -4.4252   -2.2019   -6.1967 O   0  0  0  0  0  0  0  0  0  0  0  0
   -2.6680   -3.8433   -5.7781 C   0  0  1  0  0  0  0  0  0  0  0  0
   -1.5512   -4.1931   -6.6386 O   0  0  0  0  0  0  0  0  0  0  0  0
   -0.6146   -3.2284   -6.8637 C   0  0  0  0  0  0  0  0  0  0  0  0
    0.6789   -3.6171   -7.1795 C   0  0  0  0  0  0  0  0  0  0  0  0
    0.9603   -4.9143   -7.3587 F   0  0  0  0  0  0  0  0  0  0  0  0
   -2.3485   -3.9592   -4.3031 C   0  0  1  0  0  0  0  0  0  0  0  0
   -3.4525   -3.7955   -3.4018 O   0  0  0  0  0  0  0  0  0  0  0  0
   -1.3886   -4.9545   -3.9427 O   0  0  0  0  0  0  0  0  0  0  0  0
   -1.0314   -3.6758   -3.7258 C   0  0  0  0  0  0  0  0  0  0  0  0
   -0.0974   -3.0279   -4.1594 O   0  0  0  0  0  0  0  0  0  0  0  0
    4.0999    0.1742   -2.4193 C   0  0  0  0  0  0  0  0  0  0  0  0
    4.9034   -0.5010   -3.0713 O   0  0  0  0  0  0  0  0  0  0  0  0
    4.0780    0.2269   -0.9049 C   0  0  3  0  0  0  0  0  0  0  0  0
    3.1156    1.2580   -0.3490 C   0  0  0  0  0  0  0  0  0  0  0  0
    3.2800    1.7956    0.7416 O   0  0  0  0  0  0  0  0  0  0  0  0
    3.8041   -1.0135   -0.4084 F   0  0  0  0  0  0  0  0  0  0  0  0
  1  2  1  0  0  0  0
  2  3  2  0  0  0  0
  3  4  1  0  0  0  0
  3 52  1  0  0  0  0
  4  5  1  0  0  0  0
  5  6  1  6  0  0  0
  5 49  1  0  0  0  0
  6  7  1  0  0  0  0
  7  8  2  0  0  0  0
  7 12  1  0  0  0  0
  8  9  1  0  0  0  0
  8 26  1  0  0  0  0
  9 10  1  0  0  0  0
 10 11  2  0  0  0  0
 10 22  1  0  0  0  0
 11 12  1  0  0  0  0
 11 13  1  0  0  0  0
 13 14  1  0  0  0  0
 13 20  1  0  0  0  0
 14 15  1  0  0  0  0
 15 16  2  0  0  0  0
 15 17  1  0  0  0  0
 17 18  1  0  0  0  0
 18 19  2  0  0  0  0
 18 20  1  0  0  0  0
 20 21  2  0  0  0  0
 21 22  1  0  0  0  0
 21 23  1  0  0  0  0
 23 24  1  0  0  0  0
 23 25  1  0  0  0  0
 24 25  1  0  0  0  0
 26 27  2  0  0  0  0
 26 32  1  0  0  0  0
 27 28  1  0  0  0  0
 28 29  1  0  0  0  0
 28 30  2  0  0  0  0
 30 31  1  0  0  0  0
 31 32  2  0  0  0  0
 31 42  1  0  0  0  0
 32 33  1  0  0  0  0
 33 34  2  0  0  0  0
 34 35  1  0  0  0  0
 34 41  1  0  0  0  0
 35 36  2  0  0  0  0
 35 37  1  0  0  0  0
 37 38  2  0  0  0  0
 39 37  1  1  0  0  0
 39 40  1  0  0  0  0
 39 44  1  0  0  0  0
 40 41  1  0  0  0  0
 41 42  2  0  0  0  0
 42 43  1  0  0  0  0
 44 45  1  1  0  0  0
 44 46  1  0  0  0  0
 44 47  1  0  0  0  0
 46 47  1  0  0  0  0
 47 48  2  0  0  0  0
 49 50  2  0  0  0  0
 49 51  1  0  0  0  0
 51 52  1  0  0  0  0
 51 54  1  0  0  0  0
 52 53  2  0  0  0  0
M  CHG  3  22   1  28   1  32   1
M  END
$$$$