
 OpenBabel11272002543D

 54 62  0  0  1  0  0  0  0  0999 V2000
    3.7883    5.7211   -5.5695 F   0  0  0  0  0  0  0  0  0  0  0  0
    3.0374    4.6232   -5.7848 C   0  0  0  0  0  0  0  0  0  0  0  0
    2.5817    3.8931   -4.7650 C   0  0  0  0  0  0  0  0  0  0  0  0
    2.9025    4.2495   -3.4648 O   0  0  0  0  0  0  0  0  0  0  0  0
    2.0220    3.7735   -2.4476 C   0  0  2  0  0  0  0  0  0  0  0  0
    2.5179    4.1515   -1.1407 O   0  0  0  0  0  0  0  0  0  0  0  0
    2.6722    5.5083   -0.8800 C   0  0  0  0  0  0  0  0  0  0  0  0
    3.6199    5.9505   -0.0257 C   0  0  0  0  0  0  0  0  0  0  0  0
    3.8228    7.3086    0.2523 O   0  0  0  0  0  0  0  0  0  0  0  0
    2.9342    8.2612   -0.2592 C   0  0  0  0  0  0  0  0  0  0  0  0
    1.9000    7.8942   -1.0387 C   0  0  0  0  0  0  0  0  0  0  0  0
    1.6966    6.4781   -1.4969 C   0  0  0  0  0  0  0  0  0  0  0  0
    0.8688    8.8821   -1.5123 C   0  0  3  0  0  0  0  0  0  0  0  0
   -0.3439    8.5467   -0.8620 O   0  0  0  0  0  0  0  0  0  0  0  0
   -1.4144    9.3743   -1.0030 C   0  0  0  0  0  0  0  0  0  0  0  0
   -2.5333    9.0191   -0.6724 O   0  0  0  0  0  0  0  0  0  0  0  0
   -1.1614   10.6044   -1.5105 O   0  0  0  0  0  0  0  0  0  0  0  0
    0.1361   11.1794   -1.6017 C   0  0  3  0  0  0  0  0  0  0  0  0
    1.1969   10.2650   -1.1076 C   0  0  0  0  0  0  0  0  0  0  0  0
    2.2893   10.5832   -0.3803 C   0  0  0  0  0  0  0  0  0  0  0  0
    3.1456    9.5857    0.0681 O   0  3  0  0  0  0  0  0  0  0  0  0
    2.6345   11.9692    0.0134 C   0  0  0  0  0  0  0  0  0  0  0  0
    2.1683   12.5208    1.2498 O   0  0  0  0  0  0  0  0  0  0  0  0
    3.5660   12.2127    1.0811 O   0  0  0  0  0  0  0  0  0  0  0  0
    0.4486   11.4079   -2.9605 O   0  0  0  0  0  0  0  0  0  0  0  0
    4.5283    5.0359    0.7068 C   0  0  0  0  0  0  0  0  0  0  0  0
    5.6711    4.7468    0.0638 N   0  0  0  0  0  0  0  0  0  0  0  0
    6.5433    3.9653    0.6783 N   0  3  0  0  0  0  0  0  0  0  0  0
    7.6820    3.6454    0.0320 F   0  0  0  0  0  0  0  0  0  0  0  0
    6.3787    3.5129    1.9027 N   0  0  0  0  0  0  0  0  0  0  0  0
    5.2546    3.7872    2.5614 C   0  0  0  0  0  0  0  0  0  0  0  0
    4.2425    4.5533    1.9893 C   0  0  0  0  0  0  0  0  0  0  0  0
    3.0523    4.7813    2.7283 C   0  0  0  0  0  0  0  0  0  0  0  0
    2.8986    4.2639    4.0257 C   0  0  0  0  0  0  0  0  0  0  0  0
    1.6616    4.5037    4.7683 C   0  0  0  0  0  0  0  0  0  0  0  0
    0.7919    5.2188    4.2987 O   0  0  0  0  0  0  0  0  0  0  0  0
    1.5263    3.8279    6.1111 C   0  0  0  0  0  0  0  0  0  0  0  0
    0.4192    3.6121    6.5785 O   0  0  0  0  0  0  0  0  0  0  0  0
    2.8410    3.4760    6.7746 C   0  0  1  0  0  0  0  0  0  0  0  0
    3.8692    3.0184    5.8759 O   0  0  0  0  0  0  0  0  0  0  0  0
    3.9122    3.5317    4.6120 C   0  0  0  0  0  0  0  0  0  0  0  0
    5.0730    3.3053    3.8634 C   0  0  0  0  0  0  0  0  0  0  0  0
    6.0749    2.6081    4.4235 F   0  0  0  0  0  0  0  0  0  0  0  0
    3.3204    4.5859    7.6802 C   0  0  1  0  0  0  0  0  0  0  0  0
    2.4490    4.9551    8.7637 O   0  0  0  0  0  0  0  0  0  0  0  0
    4.7145    4.5841    8.0060 O   0  0  0  0  0  0  0  0  0  0  0  0
    4.2713    5.5971    7.2463 C   0  0  0  0  0  0  0  0  0  0  0  0
    4.5950    5.9699    6.1316 O   0  0  0  0  0  0  0  0  0  0  0  0
    1.9365    2.2608   -2.5324 C   0  0  0  0  0  0  0  0  0  0  0  0
    2.2453    1.4783   -1.6476 O   0  0  0  0  0  0  0  0  0  0  0  0
    1.4637    1.8043   -3.8904 C   0  0  0  0  0  0  0  0  0  0  0  0
    0.8078    0.7843   -3.9990 O   0  0  0  0  0  0  0  0  0  0  0  0
    1.7799    2.6785   -5.0907 C   0  0  0  0  0  0  0  0  0  0  0  0
    1.3878    2.4099   -6.2117 O   0  0  0  0  0  0  0  0  0  0  0  0
  1  2  1  0  0  0  0
  2  3  2  0  0  0  0
  3  4  1  0  0  0  0
  3 53  1  0  0  0  0
  4  5  1  0  0  0  0
  5  6  1  1  0  0  0
  5 49  1  0  0  0  0
  6  7  1  0  0  0  0
  7  8  2  0  0  0  0
  7 12  1  0  0  0  0
  8  9  1  0  0  0  0
  8 26  1  0  0  0  0
  9 10  1  0  0  0  0
 10 11  2  0  0  0  0
 10 21  1  0  0  0  0
 11 12  1  0  0  0  0
 11 13  1  0  0  0  0
 13 14  1  0  0  0  0
 13 19  1  0  0  0  0
 14 15  1  0  0  0  0
 15 16  2  0  0  0  0
 15 17  1  0  0  0  0
 17 18  1  0  0  0  0
 18 19  1  0  0  0  0
 18 25  1  0  0  0  0
 19 20  2  0  0  0  0
 20 21  1  0  0  0  0
 20 22  1  0  0  0  0
 22 23  1  0  0  0  0
 22 24  1  0  0  0  0
 23 24  1  0  0  0  0
 26 27  2  0  0  0  0
 26 32  1  0  0  0  0
 27 28  1  0  0  0  0
 28 29  1  0  0  0  0
 28 30  2  0  0  0  0
 30 31  1  0  0  0  0
 31 32  2  0  0  0  0
 31 42  1  0  0  0  0
 32 33  1  0  0  0  0
 33 34  2  0  0  0  0
 34 35  1  0  0  0  0
 34 41  1  0  0  0  0
 35 36  2  0  0  0  0
 35 37  1  0  0  0  0
 37 38  2  0  0  0  0
 39 37  1  6  0  0  0
 39 40  1  0  0  0  0
 39 44  1  0  0  0  0
 40 41  1  0  0  0  0
 41 42  2  0  0  0  0
 42 43  1  0  0  0  0
 44 45  1  1  0  0  0
 44 46  1  0  0  0  0
 44 47  1  0  0  0  0
 46 47  1  0  0  0  0
 47 48  2  0  0  0  0
 49 50  2  0  0  0  0
 49 51  1  0  0  0  0
 51 52  2  0  0  0  0
 51 53  1  0  0  0  0
 53 54  2  0  0  0  0
M  CHG  2  21   1  28   1
M  END
$$$$