
 OpenBabel09232009323D

 51 59  0  0  1  0  0  0  0  0999 V2000
    2.8506    3.9857    2.5281 F   0  0  0  0  0  0  0  0  0  0  0  0
    3.4810    2.8476    2.1786 C   0  0  0  0  0  0  0  0  0  0  0  0
    3.5534    2.4633    0.9038 C   0  0  0  0  0  0  0  0  0  0  0  0
    2.9553    3.2299   -0.0808 O   0  0  0  0  0  0  0  0  0  0  0  0
    3.4739    3.0819   -1.4000 C   0  0  2  0  0  0  0  0  0  0  0  0
    2.6741    3.8525   -2.3252 O   0  0  0  0  0  0  0  0  0  0  0  0
    2.6936    5.2081   -2.0328 C   0  0  0  0  0  0  0  0  0  0  0  0
    1.6462    6.0114   -2.3290 C   0  0  0  0  0  0  0  0  0  0  0  0
    1.6870    7.3839   -2.0661 O   0  0  0  0  0  0  0  0  0  0  0  0
    2.8971    7.9081   -1.6636 C   0  0  0  0  0  0  0  0  0  0  0  0
    3.9478    7.0738   -1.3599 C   0  0  0  0  0  0  0  0  0  0  0  0
    3.8415    5.7168   -1.4359 O   0  0  0  0  0  0  0  0  0  0  0  0
    5.1431    7.6546   -0.9739 C   0  0  0  0  0  0  0  0  0  0  0  0
    6.2397    6.8541   -0.6454 N   0  0  0  0  0  0  0  0  0  0  0  0
    7.4101    7.3245   -0.1441 C   0  0  0  0  0  0  0  0  0  0  0  0
    8.3103    6.5594    0.1795 O   0  0  0  0  0  0  0  0  0  0  0  0
    7.5109    8.6661    0.0144 N   0  0  0  0  0  0  0  0  0  0  0  0
    6.6082    9.6252   -0.5764 C   0  0  0  0  0  0  0  0  0  0  0  0
    5.2695    9.0424   -0.9202 C   0  0  0  0  0  0  0  0  0  0  0  0
    4.1612    9.8333   -1.2669 C   0  0  0  0  0  0  0  0  0  0  0  0
    2.9719    9.2512   -1.6109 N   0  0  0  0  0  0  0  0  0  0  0  0
    4.2450   11.3433   -1.2866 C   0  0  0  0  0  0  0  0  0  0  0  0
    4.7484   11.9512   -2.4859 O   0  0  0  0  0  0  0  0  0  0  0  0
    3.3505   12.0611   -2.1500 O   0  0  0  0  0  0  0  0  0  0  0  0
    0.4169    5.6178   -3.0710 C   0  0  0  0  0  0  0  0  0  0  0  0
    0.1180    6.4891   -4.0664 N   0  0  0  0  0  0  0  0  0  0  0  0
   -0.8883    6.1677   -4.8639 C   0  0  0  0  0  0  0  0  0  0  0  0
   -1.5786    5.0396   -4.7757 N   0  0  0  0  0  0  0  0  0  0  0  0
   -1.2604    4.2168   -3.7786 C   0  0  0  0  0  0  0  0  0  0  0  0
   -0.2972    4.4825   -2.8342 N   0  3  0  0  0  0  0  0  0  0  0  0
   -0.1408    3.6476   -1.7772 C   0  0  0  0  0  0  0  0  0  0  0  0
   -0.8010    2.4242   -1.7268 C   0  0  0  0  0  0  0  0  0  0  0  0
   -1.6884    2.0801   -2.7198 C   0  0  0  0  0  0  0  0  0  0  0  0
   -1.9507    3.0112   -3.7128 C   0  0  0  0  0  0  0  0  0  0  0  0
   -2.3334    0.8798   -2.7982 O   0  0  0  0  0  0  0  0  0  0  0  0
   -1.7357   -0.2284   -2.0879 C   0  0  2  0  0  0  0  0  0  0  0  0
   -1.2640    0.1611   -0.7027 C   0  0  0  0  0  0  0  0  0  0  0  0
   -1.4360   -0.4895    0.3146 O   0  0  0  0  0  0  0  0  0  0  0  0
   -0.5157    1.4761   -0.6565 C   0  0  0  0  0  0  0  0  0  0  0  0
    0.3145    1.7455    0.1948 O   0  0  0  0  0  0  0  0  0  0  0  0
   -0.6252   -0.8316   -2.8886 C   0  0  3  0  0  0  0  0  0  0  0  0
    0.4432    0.0683   -3.2473 O   0  0  0  0  0  0  0  0  0  0  0  0
   -0.2296   -2.1343   -2.4709 O   0  0  0  0  0  0  0  0  0  0  0  0
   -0.7457   -2.0360   -3.7124 C   0  0  0  0  0  0  0  0  0  0  0  0
   -0.2414   -2.2862   -4.7842 O   0  0  0  0  0  0  0  0  0  0  0  0
    3.3948    1.6270   -1.7906 C   0  0  0  0  0  0  0  0  0  0  0  0
    2.7516    1.1671   -2.7195 O   0  0  0  0  0  0  0  0  0  0  0  0
    4.1888    0.7667   -0.8511 C   0  0  0  0  0  0  0  0  0  0  0  0
    4.8234   -0.1753   -1.2906 O   0  0  0  0  0  0  0  0  0  0  0  0
    4.2464    1.1762    0.6081 C   0  0  0  0  0  0  0  0  0  0  0  0
    4.8349    0.5096    1.4399 O   0  0  0  0  0  0  0  0  0  0  0  0
  1  2  1  0  0  0  0
  2  3  2  0  0  0  0
  3  4  1  0  0  0  0
  3 50  1  0  0  0  0
  4  5  1  0  0  0  0
  5  6  1  6  0  0  0
  5 46  1  0  0  0  0
  6  7  1  0  0  0  0
  7  8  2  0  0  0  0
  7 12  1  0  0  0  0
  8  9  1  0  0  0  0
  8 25  1  0  0  0  0
  9 10  1  0  0  0  0
 10 11  2  0  0  0  0
 10 21  1  0  0  0  0
 11 12  1  0  0  0  0
 11 13  1  0  0  0  0
 13 14  1  0  0  0  0
 13 19  2  0  0  0  0
 14 15  1  0  0  0  0
 15 16  2  0  0  0  0
 15 17  1  0  0  0  0
 17 18  1  0  0  0  0
 18 19  1  0  0  0  0
 19 20  1  0  0  0  0
 20 21  2  0  0  0  0
 20 22  1  0  0  0  0
 22 23  1  0  0  0  0
 22 24  1  0  0  0  0
 23 24  1  0  0  0  0
 25 26  2  0  0  0  0
 25 30  1  0  0  0  0
 26 27  1  0  0  0  0
 27 28  2  0  0  0  0
 28 29  1  0  0  0  0
 29 30  2  0  0  0  0
 29 34  1  0  0  0  0
 30 31  1  0  0  0  0
 31 32  2  0  0  0  0
 32 33  1  0  0  0  0
 32 39  1  0  0  0  0
 33 34  2  0  0  0  0
 33 35  1  0  0  0  0
 36 35  1  6  0  0  0
 36 37  1  0  0  0  0
 36 41  1  0  0  0  0
 37 38  2  0  0  0  0
 37 39  1  0  0  0  0
 39 40  2  0  0  0  0
 41 42  1  0  0  0  0
 41 43  1  0  0  0  0
 41 44  1  0  0  0  0
 43 44  1  0  0  0  0
 44 45  2  0  0  0  0
 46 47  2  0  0  0  0
 46 48  1  0  0  0  0
 48 49  2  0  0  0  0
 48 50  1  0  0  0  0
 50 51  2  0  0  0  0
M  CHG  1  30   1
M  END
$$$$