
 OpenBabel11262012203D

 54 62  0  0  1  0  0  0  0  0999 V2000
   -1.9186    3.3137   -4.7318 F   0  0  0  0  0  0  0  0  0  0  0  0
   -1.7450    2.1061   -4.1632 C   0  0  0  0  0  0  0  0  0  0  0  0
   -0.6017    1.7812   -3.5565 C   0  0  0  0  0  0  0  0  0  0  0  0
    0.4708    2.6449   -3.5519 O   0  0  0  0  0  0  0  0  0  0  0  0
    1.2493    2.6576   -2.3683 C   0  0  2  0  0  0  0  0  0  0  0  0
    2.4922    3.3542   -2.6107 O   0  0  0  0  0  0  0  0  0  0  0  0
    2.4306    4.6824   -2.9952 C   0  0  0  0  0  0  0  0  0  0  0  0
    3.3795    5.2003   -3.8022 C   0  0  0  0  0  0  0  0  0  0  0  0
    3.4464    6.5408   -4.1450 O   0  0  0  0  0  0  0  0  0  0  0  0
    2.5775    7.4284   -3.5253 C   0  0  0  0  0  0  0  0  0  0  0  0
    1.6070    7.0189   -2.6872 C   0  0  0  0  0  0  0  0  0  0  0  0
    1.3680    5.5697   -2.3978 C   0  0  0  0  0  0  0  0  0  0  0  0
    0.7167    8.0253   -1.9912 C   0  0  3  0  0  0  0  0  0  0  0  0
    0.8787    7.8147   -0.5902 O   0  0  0  0  0  0  0  0  0  0  0  0
    0.4387    8.7261    0.3120 C   0  0  0  0  0  0  0  0  0  0  0  0
    0.4013    8.4579    1.5053 O   0  0  0  0  0  0  0  0  0  0  0  0
    0.0682    9.9410   -0.1543 O   0  0  0  0  0  0  0  0  0  0  0  0
    0.1991   10.3522   -1.5082 C   0  0  3  0  0  0  0  0  0  0  0  0
    1.0565    9.4406   -2.2917 C   0  0  0  0  0  0  0  0  0  0  0  0
    2.0339    9.7768   -3.1622 C   0  0  0  0  0  0  0  0  0  0  0  0
    2.7544    8.7636   -3.7779 N   0  0  0  0  0  0  0  0  0  0  0  0
    2.4086   11.1659   -3.5139 C   0  0  0  0  0  0  0  0  0  0  0  0
    3.3768   11.8965   -2.7463 O   0  0  0  0  0  0  0  0  0  0  0  0
    3.6865   11.4855   -4.0919 O   0  0  0  0  0  0  0  0  0  0  0  0
   -1.0820   10.3541   -2.1125 O   0  0  0  0  0  0  0  0  0  0  0  0
    4.4572    4.3691   -4.3600 C   0  0  0  0  0  0  0  0  0  0  0  0
    5.6279    4.2360   -3.6257 C   0  0  0  0  0  0  0  0  0  0  0  0
    6.5879    3.3986   -4.0293 N   0  3  0  0  0  0  0  0  0  0  0  0
    7.7194    3.3038   -3.3060 F   0  0  0  0  0  0  0  0  0  0  0  0
    6.4643    2.6356   -5.1025 N   0  0  0  0  0  0  0  0  0  0  0  0
    5.3493    2.7059   -5.8405 C   0  0  0  0  0  0  0  0  0  0  0  0
    4.3139    3.6075   -5.5330 C   0  0  0  0  0  0  0  0  0  0  0  0
    3.1877    3.6821   -6.3850 C   0  0  0  0  0  0  0  0  0  0  0  0
    3.0521    2.7939   -7.4526 C   0  0  0  0  0  0  0  0  0  0  0  0
    1.8668    2.8204   -8.3035 C   0  0  0  0  0  0  0  0  0  0  0  0
    1.2289    3.8413   -8.4812 O   0  0  0  0  0  0  0  0  0  0  0  0
    1.4362    1.4846   -8.8540 C   0  0  0  0  0  0  0  0  0  0  0  0
    0.2492    1.2539   -9.0555 O   0  0  0  0  0  0  0  0  0  0  0  0
    2.5200    0.4209   -8.8969 C   0  0  1  0  0  0  0  0  0  0  0  0
    3.8642    0.8645   -8.6504 O   0  0  0  0  0  0  0  0  0  0  0  0
    4.0126    1.8327   -7.6996 C   0  0  0  0  0  0  0  0  0  0  0  0
    5.1753    1.8425   -6.9259 C   0  0  0  0  0  0  0  0  0  0  0  0
    6.1371    0.9437   -7.1929 F   0  0  0  0  0  0  0  0  0  0  0  0
    2.1021   -0.7316   -8.0028 C   0  0  1  0  0  0  0  0  0  0  0  0
    0.8707   -1.4076   -8.3521 O   0  0  0  0  0  0  0  0  0  0  0  0
    3.1679   -1.5731   -7.5309 O   0  0  0  0  0  0  0  0  0  0  0  0
    2.5061   -0.8620   -6.6127 C   0  0  0  0  0  0  0  0  0  0  0  0
    2.8529   -0.0318   -5.7935 O   0  0  0  0  0  0  0  0  0  0  0  0
    1.6962    1.2955   -1.8603 C   0  0  0  0  0  0  0  0  0  0  0  0
    2.7524    1.0804   -1.2779 O   0  0  0  0  0  0  0  0  0  0  0  0
    0.7076    0.1865   -2.1061 C   0  0  0  0  0  0  0  0  0  0  0  0
    0.8905   -0.9064   -1.5938 O   0  0  0  0  0  0  0  0  0  0  0  0
   -0.5033    0.4185   -2.9781 C   0  0  0  0  0  0  0  0  0  0  0  0
   -1.3178   -0.4627   -3.1913 O   0  0  0  0  0  0  0  0  0  0  0  0
  1  2  1  0  0  0  0
  2  3  2  0  0  0  0
  3  4  1  0  0  0  0
  3 53  1  0  0  0  0
  4  5  1  0  0  0  0
  5  6  1  6  0  0  0
  5 49  1  0  0  0  0
  6  7  1  0  0  0  0
  7  8  2  0  0  0  0
  7 12  1  0  0  0  0
  8  9  1  0  0  0  0
  8 26  1  0  0  0  0
  9 10  1  0  0  0  0
 10 11  2  0  0  0  0
 10 21  1  0  0  0  0
 11 12  1  0  0  0  0
 11 13  1  0  0  0  0
 13 14  1  0  0  0  0
 13 19  1  0  0  0  0
 14 15  1  0  0  0  0
 15 16  2  0  0  0  0
 15 17  1  0  0  0  0
 17 18  1  0  0  0  0
 18 19  1  0  0  0  0
 18 25  1  0  0  0  0
 19 20  2  0  0  0  0
 20 21  1  0  0  0  0
 20 22  1  0  0  0  0
 22 23  1  0  0  0  0
 22 24  1  0  0  0  0
 23 24  1  0  0  0  0
 26 27  2  0  0  0  0
 26 32  1  0  0  0  0
 27 28  1  0  0  0  0
 28 29  1  0  0  0  0
 28 30  2  0  0  0  0
 30 31  1  0  0  0  0
 31 32  2  0  0  0  0
 31 42  1  0  0  0  0
 32 33  1  0  0  0  0
 33 34  2  0  0  0  0
 34 35  1  0  0  0  0
 34 41  1  0  0  0  0
 35 36  2  0  0  0  0
 35 37  1  0  0  0  0
 37 38  2  0  0  0  0
 39 37  1  1  0  0  0
 39 40  1  0  0  0  0
 39 44  1  0  0  0  0
 40 41  1  0  0  0  0
 41 42  2  0  0  0  0
 42 43  1  0  0  0  0
 44 45  1  6  0  0  0
 44 46  1  0  0  0  0
 44 47  1  0  0  0  0
 46 47  1  0  0  0  0
 47 48  2  0  0  0  0
 49 50  2  0  0  0  0
 49 51  1  0  0  0  0
 51 52  2  0  0  0  0
 51 53  1  0  0  0  0
 53 54  2  0  0  0  0
M  CHG  1  28   1
M  END
$$$$