
 OpenBabel11212014403D

 53 61  0  0  1  0  0  0  0  0999 V2000
    3.1832    8.7312   -3.1741 O   0  0  0  0  0  0  0  0  0  0  0  0
    2.4827    7.6873   -3.7191 C   0  0  0  0  0  0  0  0  0  0  0  0
    2.3279    6.4967   -3.1328 C   0  0  0  0  0  0  0  0  0  0  0  0
    2.8665    6.2362   -1.8814 O   0  0  0  0  0  0  0  0  0  0  0  0
    2.2680    5.1001   -1.2270 C   0  0  2  0  0  0  0  0  0  0  0  0
    2.7528    4.9589    0.1122 O   0  0  0  0  0  0  0  0  0  0  0  0
    2.5323    6.0306    0.9740 C   0  0  0  0  0  0  0  0  0  0  0  0
    3.3829    6.2887    1.9903 C   0  0  0  0  0  0  0  0  0  0  0  0
    3.2138    7.3438    2.8795 O   0  0  0  0  0  0  0  0  0  0  0  0
    2.1281    8.2001    2.7292 C   0  0  0  0  0  0  0  0  0  0  0  0
    1.1884    7.9924    1.7886 C   0  0  0  0  0  0  0  0  0  0  0  0
    1.2780    6.8589    0.8158 C   0  0  0  0  0  0  0  0  0  0  0  0
   -0.0033    8.9169    1.6738 C   0  0  3  0  0  0  0  0  0  0  0  0
   -1.1640    8.0884    1.7542 O   0  0  0  0  0  0  0  0  0  0  0  0
   -2.3869    8.5750    2.0751 C   0  0  0  0  0  0  0  0  0  0  0  0
   -3.3819    7.8652    2.0145 O   0  0  0  0  0  0  0  0  0  0  0  0
   -2.4586    9.8542    2.5059 O   0  0  0  0  0  0  0  0  0  0  0  0
   -1.3347   10.7169    2.5986 C   0  0  3  0  0  0  0  0  0  0  0  0
   -0.0742    9.9585    2.7398 C   0  0  0  0  0  0  0  0  0  0  0  0
    0.9121   10.1170    3.6575 C   0  0  0  0  0  0  0  0  0  0  0  0
    2.0457    9.3075    3.5530 N   0  0  0  0  0  0  0  0  0  0  0  0
    2.5567    8.9838    4.8506 F   0  0  0  0  0  0  0  0  0  0  0  0
    0.9429   11.1294    4.7441 C   0  0  0  0  0  0  0  0  0  0  0  0
    1.5530   12.4171    4.5359 O   0  0  0  0  0  0  0  0  0  0  0  0
    0.1376   12.3215    4.7608 O   0  0  0  0  0  0  0  0  0  0  0  0
   -1.2462   11.4949    1.4174 O   0  0  0  0  0  0  0  0  0  0  0  0
    4.5526    5.4458    2.2910 C   0  0  0  0  0  0  0  0  0  0  0  0
    4.3843    4.3901    3.1746 C   0  0  0  0  0  0  0  0  0  0  0  0
    5.3804    3.5510    3.5088 N   0  0  0  0  0  0  0  0  0  0  0  0
    6.6127    3.7243    2.9519 N   0  0  0  0  0  0  0  0  0  0  0  0
    6.8455    4.7197    2.0861 C   0  0  0  0  0  0  0  0  0  0  0  0
    5.8327    5.6337    1.7261 C   0  0  0  0  0  0  0  0  0  0  0  0
    6.1531    6.6772    0.8284 C   0  0  0  0  0  0  0  0  0  0  0  0
    7.4344    6.7737    0.2747 C   0  0  0  0  0  0  0  0  0  0  0  0
    8.4093    5.8436    0.5986 C   0  0  0  0  0  0  0  0  0  0  0  0
    8.1124    4.8440    1.5239 C   0  0  0  0  0  0  0  0  0  0  0  0
    9.6705    5.8306    0.0760 O   0  0  0  0  0  0  0  0  0  0  0  0
    9.8571    6.5272   -1.1633 C   0  0  2  0  0  0  0  0  0  0  0  0
    9.1389    7.8507   -1.2632 C   0  0  0  0  0  0  0  0  0  0  0  0
    9.5742    8.8357   -1.8431 O   0  0  0  0  0  0  0  0  0  0  0  0
    7.7545    7.8579   -0.6581 C   0  0  0  0  0  0  0  0  0  0  0  0
    6.9346    8.7149   -0.9503 O   0  0  0  0  0  0  0  0  0  0  0  0
    9.5237    5.6352   -2.3286 C   0  0  1  0  0  0  0  0  0  0  0  0
    8.1771    5.1142   -2.3931 O   0  0  0  0  0  0  0  0  0  0  0  0
   10.0396    6.0377   -3.6003 O   0  0  0  0  0  0  0  0  0  0  0  0
   10.5725    4.9348   -3.0535 C   0  0  0  0  0  0  0  0  0  0  0  0
   11.7306    4.6716   -2.7882 O   0  0  0  0  0  0  0  0  0  0  0  0
    2.5568    3.8516   -2.0617 C   0  0  0  0  0  0  0  0  0  0  0  0
    2.9988    2.7873   -1.6616 O   0  0  0  0  0  0  0  0  0  0  0  0
    2.1956    4.0618   -3.5180 C   0  0  0  0  0  0  0  0  0  0  0  0
    2.4101    3.2187   -4.3705 O   0  0  0  0  0  0  0  0  0  0  0  0
    1.6465    5.4199   -3.8963 C   0  0  0  0  0  0  0  0  0  0  0  0
    0.7183    5.5729   -4.6655 O   0  0  0  0  0  0  0  0  0  0  0  0
  1  2  1  0  0  0  0
  2  3  2  0  0  0  0
  3  4  1  0  0  0  0
  3 52  1  0  0  0  0
  4  5  1  0  0  0  0
  5  6  1  1  0  0  0
  5 48  1  0  0  0  0
  6  7  1  0  0  0  0
  7  8  2  0  0  0  0
  7 12  1  0  0  0  0
  8  9  1  0  0  0  0
  8 27  1  0  0  0  0
  9 10  1  0  0  0  0
 10 11  2  0  0  0  0
 10 21  1  0  0  0  0
 11 12  1  0  0  0  0
 11 13  1  0  0  0  0
 13 14  1  0  0  0  0
 13 19  1  0  0  0  0
 14 15  1  0  0  0  0
 15 16  2  0  0  0  0
 15 17  1  0  0  0  0
 17 18  1  0  0  0  0
 18 19  1  0  0  0  0
 18 26  1  0  0  0  0
 19 20  2  0  0  0  0
 20 21  1  0  0  0  0
 20 23  1  0  0  0  0
 21 22  1  0  0  0  0
 23 24  1  0  0  0  0
 23 25  1  0  0  0  0
 24 25  1  0  0  0  0
 27 28  2  0  0  0  0
 27 32  1  0  0  0  0
 28 29  1  0  0  0  0
 29 30  2  0  0  0  0
 30 31  1  0  0  0  0
 31 32  2  0  0  0  0
 31 36  1  0  0  0  0
 32 33  1  0  0  0  0
 33 34  2  0  0  0  0
 34 35  1  0  0  0  0
 34 41  1  0  0  0  0
 35 36  2  0  0  0  0
 35 37  1  0  0  0  0
 38 37  1  1  0  0  0
 38 39  1  0  0  0  0
 38 43  1  0  0  0  0
 39 40  2  0  0  0  0
 39 41  1  0  0  0  0
 41 42  2  0  0  0  0
 43 44  1  1  0  0  0
 43 45  1  0  0  0  0
 43 46  1  0  0  0  0
 45 46  1  0  0  0  0
 46 47  2  0  0  0  0
 48 49  2  0  0  0  0
 48 50  1  0  0  0  0
 50 51  2  0  0  0  0
 50 52  1  0  0  0  0
 52 53  2  0  0  0  0
M  END
$$$$