
 OpenBabel11242001573D

 53 61  0  0  1  0  0  0  0  0999 V2000
    6.9683    3.3428    5.0840 O   0  0  0  0  0  0  0  0  0  0  0  0
    6.6790    3.7338    3.7991 C   0  0  0  0  0  0  0  0  0  0  0  0
    5.6302    3.2519    3.1230 C   0  0  0  0  0  0  0  0  0  0  0  0
    4.8272    2.2771    3.6943 O   0  0  0  0  0  0  0  0  0  0  0  0
    3.4419    2.4170    3.4161 C   0  0  2  0  0  0  0  0  0  0  0  0
    2.6793    1.3549    4.0363 O   0  0  0  0  0  0  0  0  0  0  0  0
    2.7870    1.1663    5.4074 C   0  0  0  0  0  0  0  0  0  0  0  0
    2.6396   -0.0592    5.9712 C   0  0  0  0  0  0  0  0  0  0  0  0
    2.8459   -0.2558    7.3497 O   0  0  0  0  0  0  0  0  0  0  0  0
    3.1582    0.8220    8.1890 C   0  0  0  0  0  0  0  0  0  0  0  0
    3.1393    2.0787    7.7145 C   0  0  0  0  0  0  0  0  0  0  0  0
    2.9782    2.3895    6.2619 C   0  0  0  0  0  0  0  0  0  0  0  0
    3.3282    3.2736    8.5974 C   0  0  3  0  0  0  0  0  0  0  0  0
    2.0775    3.9354    8.6637 O   0  0  0  0  0  0  0  0  0  0  0  0
    1.9535    4.9910    9.5088 C   0  0  0  0  0  0  0  0  0  0  0  0
    0.9967    5.7539    9.4257 O   0  0  0  0  0  0  0  0  0  0  0  0
    2.9053    5.1269   10.4583 O   0  0  0  0  0  0  0  0  0  0  0  0
    3.8931    4.1421   10.7559 C   0  0  3  0  0  0  0  0  0  0  0  0
    3.6804    2.8943    9.9798 C   0  0  0  0  0  0  0  0  0  0  0  0
    3.7675    1.6095   10.3939 C   0  0  0  0  0  0  0  0  0  0  0  0
    3.4696    0.5665    9.5146 O   0  3  0  0  0  0  0  0  0  0  0  0
    4.1969    1.2189   11.7604 C   0  0  0  0  0  0  0  0  0  0  0  0
    4.2941   -0.1646   12.1346 O   0  0  0  0  0  0  0  0  0  0  0  0
    5.4862    0.6287   11.9770 O   0  0  0  0  0  0  0  0  0  0  0  0
    5.1626    4.6260   10.3717 O   0  0  0  0  0  0  0  0  0  0  0  0
    2.2414   -1.2851    5.1819 C   0  0  0  0  0  0  0  0  0  0  0  0
    1.4139   -1.1135    4.0631 C   0  0  0  0  0  0  0  0  0  0  0  0
    1.0785   -2.1330    3.2694 N   0  3  0  0  0  0  0  0  0  0  0  0
    0.3014   -1.8978    2.1941 F   0  0  0  0  0  0  0  0  0  0  0  0
    1.4816   -3.3630    3.4937 N   0  0  0  0  0  0  0  0  0  0  0  0
    2.2151   -3.6307    4.5732 C   0  0  0  0  0  0  0  0  0  0  0  0
    2.6065   -2.6264    5.4883 C   0  0  0  0  0  0  0  0  0  0  0  0
    3.3167   -3.0542    6.6381 C   0  0  0  0  0  0  0  0  0  0  0  0
    3.6264   -4.4038    6.8610 C   0  0  0  0  0  0  0  0  0  0  0  0
    4.2337   -4.8135    8.1329 C   0  0  0  0  0  0  0  0  0  0  0  0
    4.4221   -3.9929    9.0193 O   0  0  0  0  0  0  0  0  0  0  0  0
    4.5174   -6.2927    8.2822 C   0  0  0  0  0  0  0  0  0  0  0  0
    4.5308   -6.8113    9.3867 O   0  0  0  0  0  0  0  0  0  0  0  0
    4.7091   -7.0008    6.9599 C   0  0  1  0  0  0  0  0  0  0  0  0
    3.6753   -6.6748    6.0087 O   0  0  0  0  0  0  0  0  0  0  0  0
    3.3249   -5.3586    5.9120 C   0  0  0  0  0  0  0  0  0  0  0  0
    2.6022   -4.9552    4.7918 C   0  0  0  0  0  0  0  0  0  0  0  0
    2.2563   -5.8797    3.8813 F   0  0  0  0  0  0  0  0  0  0  0  0
    6.0749   -6.7247    6.3753 C   0  0  1  0  0  0  0  0  0  0  0  0
    6.4032   -5.3501    6.1023 O   0  0  0  0  0  0  0  0  0  0  0  0
    7.1398   -7.4715    6.9596 O   0  0  0  0  0  0  0  0  0  0  0  0
    6.8224   -7.7740    5.5916 C   0  0  0  0  0  0  0  0  0  0  0  0
    3.2245    2.3182    1.9195 C   0  0  0  0  0  0  0  0  0  0  0  0
    2.5027    1.5025    1.3629 O   0  0  0  0  0  0  0  0  0  0  0  0
    4.0319    3.3482    1.1706 C   0  0  0  0  0  0  0  0  0  0  0  0
    3.5533    3.8932    0.1917 O   0  0  0  0  0  0  0  0  0  0  0  0
    5.3769    3.7632    1.7406 C   0  0  0  0  0  0  0  0  0  0  0  0
    6.1523    4.4705    1.1232 O   0  0  0  0  0  0  0  0  0  0  0  0
  1  2  1  0  0  0  0
  2  3  2  0  0  0  0
  3  4  1  0  0  0  0
  3 52  1  0  0  0  0
  4  5  1  0  0  0  0
  5  6  1  1  0  0  0
  5 48  1  0  0  0  0
  6  7  1  0  0  0  0
  7  8  2  0  0  0  0
  7 12  1  0  0  0  0
  8  9  1  0  0  0  0
  8 26  1  0  0  0  0
  9 10  1  0  0  0  0
 10 11  2  0  0  0  0
 10 21  1  0  0  0  0
 11 12  1  0  0  0  0
 11 13  1  0  0  0  0
 13 14  1  0  0  0  0
 13 19  1  0  0  0  0
 14 15  1  0  0  0  0
 15 16  2  0  0  0  0
 15 17  1  0  0  0  0
 17 18  1  0  0  0  0
 18 19  1  0  0  0  0
 18 25  1  0  0  0  0
 19 20  2  0  0  0  0
 20 21  1  0  0  0  0
 20 22  1  0  0  0  0
 22 23  1  0  0  0  0
 22 24  1  0  0  0  0
 23 24  1  0  0  0  0
 26 27  2  0  0  0  0
 26 32  1  0  0  0  0
 27 28  1  0  0  0  0
 28 29  1  0  0  0  0
 28 30  2  0  0  0  0
 30 31  1  0  0  0  0
 31 32  2  0  0  0  0
 31 42  1  0  0  0  0
 32 33  1  0  0  0  0
 33 34  2  0  0  0  0
 34 35  1  0  0  0  0
 34 41  1  0  0  0  0
 35 36  2  0  0  0  0
 35 37  1  0  0  0  0
 37 38  2  0  0  0  0
 39 37  1  1  0  0  0
 39 40  1  0  0  0  0
 39 44  1  0  0  0  0
 40 41  1  0  0  0  0
 41 42  2  0  0  0  0
 42 43  1  0  0  0  0
 44 45  1  6  0  0  0
 44 46  1  0  0  0  0
 44 47  1  0  0  0  0
 46 47  1  0  0  0  0
 48 49  2  0  0  0  0
 48 50  1  0  0  0  0
 50 51  2  0  0  0  0
 50 52  1  0  0  0  0
 52 53  2  0  0  0  0
M  CHG  2  21   1  28   1
M  END
$$$$