
 OpenBabel11222001523D

 53 61  0  0  1  0  0  0  0  0999 V2000
    2.9103   -5.3136    6.3028 O   0  0  0  0  0  0  0  0  0  0  0  0
    2.3031   -4.0871    6.2328 C   0  0  0  0  0  0  0  0  0  0  0  0
    2.1775   -3.4056    5.0881 C   0  0  0  0  0  0  0  0  0  0  0  0
    2.7083   -3.8671    3.8947 O   0  0  0  0  0  0  0  0  0  0  0  0
    1.7637   -3.8833    2.8273 C   0  0  2  0  0  0  0  0  0  0  0  0
    2.4043   -4.1663    1.5667 O   0  0  0  0  0  0  0  0  0  0  0  0
    2.6113   -5.4997    1.2321 C   0  0  0  0  0  0  0  0  0  0  0  0
    2.6487   -5.9027   -0.0596 C   0  0  0  0  0  0  0  0  0  0  0  0
    2.8189   -7.2350   -0.4455 O   0  0  0  0  0  0  0  0  0  0  0  0
    2.9077   -8.2195    0.5334 C   0  0  0  0  0  0  0  0  0  0  0  0
    2.9335   -7.8985    1.8350 C   0  0  0  0  0  0  0  0  0  0  0  0
    2.8432   -6.5001    2.3380 C   0  0  0  0  0  0  0  0  0  0  0  0
    2.9454   -8.9977    2.8317 C   0  0  0  0  0  0  0  0  0  0  0  0
    2.9810   -8.7293    4.0981 N   0  0  0  0  0  0  0  0  0  0  0  0
    2.9300   -9.7860    4.9532 C   0  0  0  0  0  0  0  0  0  0  0  0
    2.9741   -9.4536    6.1905 N   0  0  0  0  0  0  0  0  0  0  0  0
    2.8186  -11.1088    4.6442 N   0  0  0  0  0  0  0  0  0  0  0  0
    2.7849  -11.4045    3.3878 C   0  0  0  0  0  0  0  0  0  0  0  0
    2.8640  -10.3900    2.3261 C   0  0  0  0  0  0  0  0  0  0  0  0
    2.8484  -10.6152    0.9963 C   0  0  0  0  0  0  0  0  0  0  0  0
    2.9209   -9.5332    0.1226 N   0  0  0  0  0  0  0  0  0  0  0  0
    2.7314  -11.9589    0.3785 C   0  0  0  0  0  0  0  0  0  0  0  0
    1.4476  -12.5376    0.0908 O   0  0  0  0  0  0  0  0  0  0  0  0
    2.3172  -12.1415   -0.9870 O   0  0  0  0  0  0  0  0  0  0  0  0
    2.4643   -4.9809   -1.1994 C   0  0  0  0  0  0  0  0  0  0  0  0
    1.1634   -4.7733   -1.6678 C   0  0  0  0  0  0  0  0  0  0  0  0
    0.9831   -3.9135   -2.7262 C   0  0  0  0  0  0  0  0  0  0  0  0
   -0.2577   -3.7142   -3.1897 F   0  0  0  0  0  0  0  0  0  0  0  0
    1.9852   -3.2602   -3.3376 N   0  0  0  0  0  0  0  0  0  0  0  0
    3.2371   -3.4469   -2.8679 C   0  0  0  0  0  0  0  0  0  0  0  0
    3.5500   -4.3167   -1.7949 C   0  0  0  0  0  0  0  0  0  0  0  0
    4.8203   -4.4797   -1.3531 N   0  0  0  0  0  0  0  0  0  0  0  0
    5.7997   -3.7295   -1.9133 C   0  0  0  0  0  0  0  0  0  0  0  0
    7.1571   -3.8630   -1.3658 C   0  0  0  0  0  0  0  0  0  0  0  0
    7.5238   -4.8392   -0.7298 O   0  0  0  0  0  0  0  0  0  0  0  0
    8.1012   -2.7084   -1.6232 C   0  0  0  0  0  0  0  0  0  0  0  0
    9.1722   -2.6399   -1.0334 O   0  0  0  0  0  0  0  0  0  0  0  0
    7.5934   -1.6419   -2.5734 C   0  0  1  0  0  0  0  0  0  0  0  0
    6.5617   -2.0433   -3.4801 O   0  0  0  0  0  0  0  0  0  0  0  0
    5.5885   -2.8340   -2.9379 C   0  0  0  0  0  0  0  0  0  0  0  0
    4.2964   -2.7398   -3.4647 C   0  0  0  0  0  0  0  0  0  0  0  0
    4.0179   -1.7282   -4.4290 N   0  0  0  0  0  0  0  0  0  0  0  0
    7.1689   -0.4073   -1.8275 C   0  0  1  0  0  0  0  0  0  0  0  0
    6.1093   -0.5791   -0.8575 O   0  0  0  0  0  0  0  0  0  0  0  0
    8.2380    0.4716   -1.4326 O   0  0  0  0  0  0  0  0  0  0  0  0
    7.3822    0.9235   -2.3481 C   0  0  0  0  0  0  0  0  0  0  0  0
    7.5363    1.3535   -3.4813 O   0  0  0  0  0  0  0  0  0  0  0  0
    1.0129   -2.5744    2.6153 C   0  0  0  0  0  0  0  0  0  0  0  0
    0.2205   -2.3538    1.7088 O   0  0  0  0  0  0  0  0  0  0  0  0
    1.2269   -1.5691    3.7165 C   0  0  0  0  0  0  0  0  0  0  0  0
    1.2163   -0.3721    3.4851 O   0  0  0  0  0  0  0  0  0  0  0  0
    1.4665   -2.1006    5.1098 C   0  0  0  0  0  0  0  0  0  0  0  0
    1.0498   -1.5379    6.1061 O   0  0  0  0  0  0  0  0  0  0  0  0
  1  2  1  0  0  0  0
  2  3  2  0  0  0  0
  3  4  1  0  0  0  0
  3 52  1  0  0  0  0
  4  5  1  0  0  0  0
  5  6  1  6  0  0  0
  5 48  1  0  0  0  0
  6  7  1  0  0  0  0
  7  8  2  0  0  0  0
  7 12  1  0  0  0  0
  8  9  1  0  0  0  0
  8 25  1  0  0  0  0
  9 10  1  0  0  0  0
 10 11  2  0  0  0  0
 10 21  1  0  0  0  0
 11 12  1  0  0  0  0
 11 13  1  0  0  0  0
 13 14  2  0  0  0  0
 13 19  1  0  0  0  0
 14 15  1  0  0  0  0
 15 16  2  0  0  0  0
 15 17  1  0  0  0  0
 17 18  2  0  0  0  0
 18 19  1  0  0  0  0
 19 20  2  0  0  0  0
 20 21  1  0  0  0  0
 20 22  1  0  0  0  0
 22 23  1  0  0  0  0
 22 24  1  0  0  0  0
 23 24  1  0  0  0  0
 25 26  2  0  0  0  0
 25 31  1  0  0  0  0
 26 27  1  0  0  0  0
 27 28  1  0  0  0  0
 27 29  2  0  0  0  0
 29 30  1  0  0  0  0
 30 31  2  0  0  0  0
 30 41  1  0  0  0  0
 31 32  1  0  0  0  0
 32 33  2  0  0  0  0
 33 34  1  0  0  0  0
 33 40  1  0  0  0  0
 34 35  2  0  0  0  0
 34 36  1  0  0  0  0
 36 37  2  0  0  0  0
 38 36  1  1  0  0  0
 38 39  1  0  0  0  0
 38 43  1  0  0  0  0
 39 40  1  0  0  0  0
 40 41  2  0  0  0  0
 41 42  1  0  0  0  0
 43 44  1  1  0  0  0
 43 45  1  0  0  0  0
 43 46  1  0  0  0  0
 45 46  1  0  0  0  0
 46 47  2  0  0  0  0
 48 49  2  0  0  0  0
 48 50  1  0  0  0  0
 50 51  2  0  0  0  0
 50 52  1  0  0  0  0
 52 53  2  0  0  0  0
M  END
$$$$