
 OpenBabel11242002523D

 54 62  0  0  1  0  0  0  0  0999 V2000
    5.7454   -6.9384   -1.4163 O   0  3  0  0  0  0  0  0  0  0  0  0
    6.4056   -5.9546   -1.3762 C   0  0  0  0  0  0  0  0  0  0  0  0
    7.1064   -4.6670   -1.4095 C   0  0  3  0  0  0  0  0  0  0  0  0
    6.4347   -3.7564   -2.3041 O   0  0  0  0  0  0  0  0  0  0  0  0
    5.1871   -3.2720   -1.8100 C   0  0  2  0  0  0  0  0  0  0  0  0
    4.5038   -2.5097   -2.8314 O   0  0  0  0  0  0  0  0  0  0  0  0
    4.1378   -3.1776   -3.9926 C   0  0  0  0  0  0  0  0  0  0  0  0
    4.0797   -2.5330   -5.1787 C   0  0  0  0  0  0  0  0  0  0  0  0
    3.7527   -3.1742   -6.3778 O   0  0  0  0  0  0  0  0  0  0  0  0
    3.6056   -4.5674   -6.3904 C   0  0  0  0  0  0  0  0  0  0  0  0
    3.5734   -5.2714   -5.2432 C   0  0  0  0  0  0  0  0  0  0  0  0
    3.7324   -4.6268   -3.9003 C   0  0  0  0  0  0  0  0  0  0  0  0
    3.4573   -6.7702   -5.2257 C   0  0  3  0  0  0  0  0  0  0  0  0
    2.2140   -7.1165   -4.6522 O   0  0  0  0  0  0  0  0  0  0  0  0
    1.9543   -8.4520   -4.5481 C   0  0  0  0  0  0  0  0  0  0  0  0
    1.0827   -8.8742   -3.8074 O   0  0  0  0  0  0  0  0  0  0  0  0
    2.7232   -9.2655   -5.3158 O   0  0  0  0  0  0  0  0  0  0  0  0
    3.3896   -8.8182   -6.4929 C   0  0  3  0  0  0  0  0  0  0  0  0
    3.4476   -7.3378   -6.5888 C   0  0  0  0  0  0  0  0  0  0  0  0
    3.4859   -6.5815   -7.7066 C   0  0  0  0  0  0  0  0  0  0  0  0
    3.5093   -5.1968   -7.6135 O   0  3  0  0  0  0  0  0  0  0  0  0
    3.5026   -7.1412   -9.0771 C   0  0  0  0  0  0  0  0  0  0  0  0
    2.2871   -7.3762   -9.7960 O   0  0  0  0  0  0  0  0  0  0  0  0
    3.1669   -6.3097  -10.2023 O   0  0  0  0  0  0  0  0  0  0  0  0
    4.7461   -9.2143   -6.4314 O   0  0  0  0  0  0  0  0  0  0  0  0
    4.3219   -1.0765   -5.2988 C   0  0  0  0  0  0  0  0  0  0  0  0
    3.2373   -0.2138   -5.1479 C   0  0  0  0  0  0  0  0  0  0  0  0
    3.4053    1.1125   -5.2058 N   0  3  0  0  0  0  0  0  0  0  0  0
    2.3321    1.9176   -5.0814 F   0  0  0  0  0  0  0  0  0  0  0  0
    4.5871    1.6703   -5.3895 N   0  0  0  0  0  0  0  0  0  0  0  0
    5.6723    0.9018   -5.5265 C   0  0  0  0  0  0  0  0  0  0  0  0
    5.5943   -0.5040   -5.5048 C   0  0  0  0  0  0  0  0  0  0  0  0
    6.7829   -1.2479   -5.6908 C   0  0  0  0  0  0  0  0  0  0  0  0
    8.0190   -0.6072   -5.8749 C   0  0  0  0  0  0  0  0  0  0  0  0
    9.2245   -1.4015   -6.1287 C   0  0  0  0  0  0  0  0  0  0  0  0
    9.1549   -2.6186   -6.1951 O   0  0  0  0  0  0  0  0  0  0  0  0
   10.5119   -0.6386   -6.3506 C   0  0  0  0  0  0  0  0  0  0  0  0
   11.4589   -1.1690   -6.9091 O   0  0  0  0  0  0  0  0  0  0  0  0
   10.4987    0.7718   -5.8039 C   0  0  1  0  0  0  0  0  0  0  0  0
    9.2631    1.4767   -6.0061 O   0  0  0  0  0  0  0  0  0  0  0  0
    8.1035    0.7723   -5.8550 C   0  0  0  0  0  0  0  0  0  0  0  0
    6.9227    1.5024   -5.6972 C   0  0  0  0  0  0  0  0  0  0  0  0
    6.9898    2.8435   -5.7057 F   0  0  0  0  0  0  0  0  0  0  0  0
   10.8652    0.7772   -4.3559 C   0  0  1  0  0  0  0  0  0  0  0  0
    9.9997    0.0215   -3.4648 O   0  0  0  0  0  0  0  0  0  0  0  0
   12.2572    0.6964   -4.0847 O   0  0  0  0  0  0  0  0  0  0  0  0
   11.6457    1.8383   -3.7125 C   0  0  0  0  0  0  0  0  0  0  0  0
   11.4847    2.3049   -2.6023 O   0  0  0  0  0  0  0  0  0  0  0  0
    5.4554   -2.3688   -0.6221 C   0  0  0  0  0  0  0  0  0  0  0  0
    4.9694   -1.2588   -0.4664 O   0  0  0  0  0  0  0  0  0  0  0  0
    6.4091   -2.9801    0.3801 C   0  0  0  0  0  0  0  0  0  0  0  0
    6.4307   -2.5484    1.5208 O   0  0  0  0  0  0  0  0  0  0  0  0
    7.3248   -4.1231   -0.0146 C   0  0  0  0  0  0  0  0  0  0  0  0
    8.1473   -4.5725    0.7648 O   0  0  0  0  0  0  0  0  0  0  0  0
  1  2  3  0  0  0  0
  2  3  1  0  0  0  0
  3  4  1  0  0  0  0
  3 53  1  0  0  0  0
  4  5  1  0  0  0  0
  5  6  1  6  0  0  0
  5 49  1  0  0  0  0
  6  7  1  0  0  0  0
  7  8  2  0  0  0  0
  7 12  1  0  0  0  0
  8  9  1  0  0  0  0
  8 26  1  0  0  0  0
  9 10  1  0  0  0  0
 10 11  2  0  0  0  0
 10 21  1  0  0  0  0
 11 12  1  0  0  0  0
 11 13  1  0  0  0  0
 13 14  1  0  0  0  0
 13 19  1  0  0  0  0
 14 15  1  0  0  0  0
 15 16  2  0  0  0  0
 15 17  1  0  0  0  0
 17 18  1  0  0  0  0
 18 19  1  0  0  0  0
 18 25  1  0  0  0  0
 19 20  2  0  0  0  0
 20 21  1  0  0  0  0
 20 22  1  0  0  0  0
 22 23  1  0  0  0  0
 22 24  1  0  0  0  0
 23 24  1  0  0  0  0
 26 27  2  0  0  0  0
 26 32  1  0  0  0  0
 27 28  1  0  0  0  0
 28 29  1  0  0  0  0
 28 30  2  0  0  0  0
 30 31  1  0  0  0  0
 31 32  2  0  0  0  0
 31 42  1  0  0  0  0
 32 33  1  0  0  0  0
 33 34  2  0  0  0  0
 34 35  1  0  0  0  0
 34 41  1  0  0  0  0
 35 36  2  0  0  0  0
 35 37  1  0  0  0  0
 37 38  2  0  0  0  0
 39 37  1  1  0  0  0
 39 40  1  0  0  0  0
 39 44  1  0  0  0  0
 40 41  1  0  0  0  0
 41 42  2  0  0  0  0
 42 43  1  0  0  0  0
 44 45  1  1  0  0  0
 44 46  1  0  0  0  0
 44 47  1  0  0  0  0
 46 47  1  0  0  0  0
 47 48  2  0  0  0  0
 49 50  2  0  0  0  0
 49 51  1  0  0  0  0
 51 52  2  0  0  0  0
 51 53  1  0  0  0  0
 53 54  2  0  0  0  0
M  CHG  3   1   1  21   1  28   1
M  END
$$$$