
 OpenBabel11232023533D

 54 62  0  0  1  0  0  0  0  0999 V2000
    7.3966   -1.2043   11.9594 O   0  0  0  0  0  0  0  0  0  0  0  0
    7.3830    0.1126   12.3384 C   0  0  0  0  0  0  0  0  0  0  0  0
    6.4157    0.9554   11.9619 C   0  0  0  0  0  0  0  0  0  0  0  0
    5.3986    0.5620   11.0998 O   0  0  0  0  0  0  0  0  0  0  0  0
    4.0946    0.9261   11.5440 C   0  0  2  0  0  0  0  0  0  0  0  0
    3.1177    0.4671   10.5644 O   0  0  0  0  0  0  0  0  0  0  0  0
    2.7577    1.2560    9.4805 C   0  0  0  0  0  0  0  0  0  0  0  0
    1.5207    1.1854    8.9278 C   0  0  0  0  0  0  0  0  0  0  0  0
    1.1151    2.1843    7.9985 O   0  0  0  0  0  0  0  0  0  0  0  0
    1.7522    3.4398    8.0417 C   0  0  0  0  0  0  0  0  0  0  0  0
    3.0269    3.5213    8.4957 C   0  0  0  0  0  0  0  0  0  0  0  0
    3.7376    2.2471    8.8825 C   0  0  0  0  0  0  0  0  0  0  0  0
    3.7097    4.8389    8.7625 C   0  0  3  0  0  0  0  0  0  0  0  0
    5.0503    4.8987    8.3285 O   0  0  0  0  0  0  0  0  0  0  0  0
    5.7048    6.0513    8.7025 C   0  0  0  0  0  0  0  0  0  0  0  0
    6.9098    6.1509    8.7612 O   0  0  0  0  0  0  0  0  0  0  0  0
    4.8671    7.1268    8.8198 O   0  0  0  0  0  0  0  0  0  0  0  0
    3.9665    7.0742    7.7611 C   0  0  3  0  0  0  0  0  0  0  0  0
    3.0373    5.8965    7.9848 C   0  0  0  0  0  0  0  0  0  0  0  0
    1.7721    5.7705    7.5370 C   0  0  0  0  0  0  0  0  0  0  0  0
    1.0452    4.5792    7.6233 O   0  3  0  0  0  0  0  0  0  0  0  0
    1.3316    7.0251    6.8609 C   0  0  0  0  0  0  0  0  0  0  0  0
    0.3793    7.1125    6.1214 O   0  0  0  0  0  0  0  0  0  0  0  0
    2.0987    8.0932    6.8570 O   0  3  0  0  0  0  0  0  0  0  0  0
    3.0576    8.1454    7.6762 O   0  3  0  0  0  0  0  0  0  0  0  0
    0.5170    0.0814    9.1910 C   0  0  0  0  0  0  0  0  0  0  0  0
    0.9691   -1.2103    9.4883 C   0  0  0  0  0  0  0  0  0  0  0  0
    0.1209   -2.2382    9.6297 N   0  3  0  0  0  0  0  0  0  0  0  0
    0.6109   -3.4566    9.9336 F   0  0  0  0  0  0  0  0  0  0  0  0
   -1.1785   -2.1180    9.4462 N   0  0  0  0  0  0  0  0  0  0  0  0
   -1.7005   -0.9297    9.1438 C   0  0  0  0  0  0  0  0  0  0  0  0
   -0.8866    0.2200    9.0388 C   0  0  0  0  0  0  0  0  0  0  0  0
   -1.5322    1.4416    8.7813 C   0  0  0  0  0  0  0  0  0  0  0  0
   -2.9037    1.5183    8.5267 C   0  0  0  0  0  0  0  0  0  0  0  0
   -3.4722    2.8121    8.1679 C   0  0  0  0  0  0  0  0  0  0  0  0
   -2.7085    3.7414    7.9079 O   0  0  0  0  0  0  0  0  0  0  0  0
   -4.9832    2.8957    8.1065 C   0  0  0  0  0  0  0  0  0  0  0  0
   -5.4872    3.9062    7.6419 O   0  0  0  0  0  0  0  0  0  0  0  0
   -5.7189    1.6935    8.6881 C   0  0  1  0  0  0  0  0  0  0  0  0
   -5.0539    0.4329    8.4408 O   0  0  0  0  0  0  0  0  0  0  0  0
   -3.7003    0.3994    8.6055 C   0  0  0  0  0  0  0  0  0  0  0  0
   -3.0813   -0.8142    8.9174 C   0  0  0  0  0  0  0  0  0  0  0  0
   -3.8390   -1.9166    9.0200 F   0  0  0  0  0  0  0  0  0  0  0  0
   -6.0625    1.9003   10.1483 C   0  0  1  0  0  0  0  0  0  0  0  0
   -6.8894    3.0349   10.4553 O   0  0  0  0  0  0  0  0  0  0  0  0
   -6.3034    0.7111   10.9197 O   0  0  0  0  0  0  0  0  0  0  0  0
   -5.2300    1.4351   11.2471 C   0  0  0  0  0  0  0  0  0  0  0  0
   -4.0365    1.1914   11.2877 O   0  0  0  0  0  0  0  0  0  0  0  0
    3.9386    2.4200   11.8808 C   0  0  0  0  0  0  0  0  0  0  0  0
    2.8988    3.0700   11.7905 O   0  0  0  0  0  0  0  0  0  0  0  0
    5.2555    3.1371   11.9723 C   0  0  0  0  0  0  0  0  0  0  0  0
    5.3287    4.2365   11.4305 O   0  0  0  0  0  0  0  0  0  0  0  0
    6.4707    2.3682   12.4240 C   0  0  0  0  0  0  0  0  0  0  0  0
    7.3468    2.8933   13.0772 O   0  0  0  0  0  0  0  0  0  0  0  0
  1  2  1  0  0  0  0
  2  3  2  0  0  0  0
  3  4  1  0  0  0  0
  3 53  1  0  0  0  0
  4  5  1  0  0  0  0
  5  6  1  6  0  0  0
  5 49  1  0  0  0  0
  6  7  1  0  0  0  0
  7  8  2  0  0  0  0
  7 12  1  0  0  0  0
  8  9  1  0  0  0  0
  8 26  1  0  0  0  0
  9 10  1  0  0  0  0
 10 11  2  0  0  0  0
 10 21  1  0  0  0  0
 11 12  1  0  0  0  0
 11 13  1  0  0  0  0
 13 14  1  0  0  0  0
 13 19  1  0  0  0  0
 14 15  1  0  0  0  0
 15 16  2  0  0  0  0
 15 17  1  0  0  0  0
 17 18  1  0  0  0  0
 18 19  1  0  0  0  0
 18 25  1  0  0  0  0
 19 20  2  0  0  0  0
 20 21  1  0  0  0  0
 20 22  1  0  0  0  0
 22 23  2  0  0  0  0
 22 24  1  0  0  0  0
 24 25  2  0  0  0  0
 26 27  2  0  0  0  0
 26 32  1  0  0  0  0
 27 28  1  0  0  0  0
 28 29  1  0  0  0  0
 28 30  2  0  0  0  0
 30 31  1  0  0  0  0
 31 32  2  0  0  0  0
 31 42  1  0  0  0  0
 32 33  1  0  0  0  0
 33 34  2  0  0  0  0
 34 35  1  0  0  0  0
 34 41  1  0  0  0  0
 35 36  2  0  0  0  0
 35 37  1  0  0  0  0
 37 38  2  0  0  0  0
 39 37  1  1  0  0  0
 39 40  1  0  0  0  0
 39 44  1  0  0  0  0
 40 41  1  0  0  0  0
 41 42  2  0  0  0  0
 42 43  1  0  0  0  0
 44 45  1  1  0  0  0
 44 46  1  0  0  0  0
 44 47  1  0  0  0  0
 46 47  1  0  0  0  0
 47 48  2  0  0  0  0
 49 50  2  0  0  0  0
 49 51  1  0  0  0  0
 51 52  2  0  0  0  0
 51 53  1  0  0  0  0
 53 54  2  0  0  0  0
M  CHG  4  21   1  24   1  25   1  28   1
M  END
$$$$