
 OpenBabel11272001383D

 54 62  0  0  1  0  0  0  0  0999 V2000
    2.3485    4.7883   -6.6692 F   0  0  0  0  0  0  0  0  0  0  0  0
    1.5791    3.7044   -6.4521 C   0  0  0  0  0  0  0  0  0  0  0  0
    1.5620    3.0958   -5.2653 C   0  0  0  0  0  0  0  0  0  0  0  0
    2.3632    3.5494   -4.2350 O   0  0  0  0  0  0  0  0  0  0  0  0
    1.8059    3.3681   -2.9359 C   0  0  2  0  0  0  0  0  0  0  0  0
    2.6764    3.9292   -1.9459 O   0  0  0  0  0  0  0  0  0  0  0  0
    2.8834    5.3013   -1.9818 C   0  0  0  0  0  0  0  0  0  0  0  0
    4.0384    5.8387   -1.5394 C   0  0  0  0  0  0  0  0  0  0  0  0
    4.2583    7.2077   -1.4531 O   0  0  0  0  0  0  0  0  0  0  0  0
    3.2095    8.0828   -1.6834 C   0  0  0  0  0  0  0  0  0  0  0  0
    2.0059    7.6537   -2.1073 C   0  0  0  0  0  0  0  0  0  0  0  0
    1.7365    6.1983   -2.3749 C   0  0  0  0  0  0  0  0  0  0  0  0
    0.8608    8.6035   -2.3320 C   0  0  3  0  0  0  0  0  0  0  0  0
   -0.1694    8.2596   -1.4125 O   0  0  0  0  0  0  0  0  0  0  0  0
   -1.2269    9.0891   -1.3176 C   0  0  0  0  0  0  0  0  0  0  0  0
   -2.2811    8.7195   -0.6959 N   0  0  0  0  0  0  0  0  0  0  0  0
   -1.1496   10.3085   -1.8757 O   0  0  0  0  0  0  0  0  0  0  0  0
    0.0797   10.9053   -2.2656 C   0  0  3  0  0  0  0  0  0  0  0  0
    1.2460   10.0099   -2.0525 C   0  0  0  0  0  0  0  0  0  0  0  0
    2.4825   10.3704   -1.6423 C   0  0  0  0  0  0  0  0  0  0  0  0
    3.4587    9.4106   -1.4482 O   0  3  0  0  0  0  0  0  0  0  0  0
    2.8858   11.7652   -1.3581 C   0  0  0  0  0  0  0  0  0  0  0  0
    2.8013   12.3030   -0.0333 O   0  0  0  0  0  0  0  0  0  0  0  0
    4.0903   12.0387   -0.6200 O   0  0  0  0  0  0  0  0  0  0  0  0
    0.0484   11.1643   -3.6543 O   0  0  0  0  0  0  0  0  0  0  0  0
    5.1356    5.0350   -0.9743 C   0  0  0  0  0  0  0  0  0  0  0  0
    5.0492    4.9154    0.3717 N   0  0  0  0  0  0  0  0  0  0  0  0
    5.9938    4.1805    0.9856 C   0  0  0  0  0  0  0  0  0  0  0  0
    5.9016    4.0468    2.3149 F   0  0  0  0  0  0  0  0  0  0  0  0
    7.0566    3.5909    0.3345 C   0  0  0  0  0  0  0  0  0  0  0  0
    7.1764    3.7593   -1.0485 C   0  0  0  0  0  0  0  0  0  0  0  0
    6.1948    4.5000   -1.7450 C   0  0  0  0  0  0  0  0  0  0  0  0
    6.3597    4.6713   -3.1402 C   0  0  0  0  0  0  0  0  0  0  0  0
    7.4643    4.1202   -3.8110 C   0  0  0  0  0  0  0  0  0  0  0  0
    7.6533    4.3721   -5.2414 C   0  0  0  0  0  0  0  0  0  0  0  0
    7.0032    5.2356   -5.8114 O   0  0  0  0  0  0  0  0  0  0  0  0
    8.6953    3.5468   -5.9637 C   0  0  0  0  0  0  0  0  0  0  0  0
    8.8586    3.6728   -7.1694 O   0  0  0  0  0  0  0  0  0  0  0  0
    9.4269    2.5388   -5.1023 C   0  0  1  0  0  0  0  0  0  0  0  0
    9.5293    2.8486   -3.7106 O   0  0  0  0  0  0  0  0  0  0  0  0
    8.4153    3.3810   -3.1276 C   0  0  0  0  0  0  0  0  0  0  0  0
    8.2661    3.2145   -1.7516 C   0  0  0  0  0  0  0  0  0  0  0  0
    9.1983    2.5190   -1.0801 F   0  0  0  0  0  0  0  0  0  0  0  0
    8.8498    1.1708   -5.2730 C   0  0  1  0  0  0  0  0  0  0  0  0
    7.4461    1.0141   -4.9409 O   0  0  0  0  0  0  0  0  0  0  0  0
    9.3096    0.4535   -6.4141 O   0  0  0  0  0  0  0  0  0  0  0  0
    9.6512   -0.0515   -5.2139 C   0  0  0  0  0  0  0  0  0  0  0  0
    9.3787   -1.1275   -4.7204 O   0  0  0  0  0  0  0  0  0  0  0  0
    1.5790    1.8914   -2.6522 C   0  0  0  0  0  0  0  0  0  0  0  0
    1.9041    1.2945   -1.6383 O   0  0  0  0  0  0  0  0  0  0  0  0
    0.8201    1.2078   -3.7650 C   0  0  0  0  0  0  0  0  0  0  0  0
    0.3040    0.1182   -3.5816 O   0  0  0  0  0  0  0  0  0  0  0  0
    0.6690    1.9170   -5.0954 C   0  0  0  0  0  0  0  0  0  0  0  0
   -0.1593    1.5753   -5.9228 O   0  0  0  0  0  0  0  0  0  0  0  0
  1  2  1  0  0  0  0
  2  3  2  0  0  0  0
  3  4  1  0  0  0  0
  3 53  1  0  0  0  0
  4  5  1  0  0  0  0
  5  6  1  1  0  0  0
  5 49  1  0  0  0  0
  6  7  1  0  0  0  0
  7  8  2  0  0  0  0
  7 12  1  0  0  0  0
  8  9  1  0  0  0  0
  8 26  1  0  0  0  0
  9 10  1  0  0  0  0
 10 11  2  0  0  0  0
 10 21  1  0  0  0  0
 11 12  1  0  0  0  0
 11 13  1  0  0  0  0
 13 14  1  0  0  0  0
 13 19  1  0  0  0  0
 14 15  1  0  0  0  0
 15 16  2  0  0  0  0
 15 17  1  0  0  0  0
 17 18  1  0  0  0  0
 18 19  1  0  0  0  0
 18 25  1  0  0  0  0
 19 20  2  0  0  0  0
 20 21  1  0  0  0  0
 20 22  1  0  0  0  0
 22 23  1  0  0  0  0
 22 24  1  0  0  0  0
 23 24  1  0  0  0  0
 26 27  2  0  0  0  0
 26 32  1  0  0  0  0
 27 28  1  0  0  0  0
 28 29  1  0  0  0  0
 28 30  2  0  0  0  0
 30 31  1  0  0  0  0
 31 32  2  0  0  0  0
 31 42  1  0  0  0  0
 32 33  1  0  0  0  0
 33 34  2  0  0  0  0
 34 35  1  0  0  0  0
 34 41  1  0  0  0  0
 35 36  2  0  0  0  0
 35 37  1  0  0  0  0
 37 38  2  0  0  0  0
 39 37  1  6  0  0  0
 39 40  1  0  0  0  0
 39 44  1  0  0  0  0
 40 41  1  0  0  0  0
 41 42  2  0  0  0  0
 42 43  1  0  0  0  0
 44 45  1  1  0  0  0
 44 46  1  0  0  0  0
 44 47  1  0  0  0  0
 46 47  1  0  0  0  0
 47 48  2  0  0  0  0
 49 50  2  0  0  0  0
 49 51  1  0  0  0  0
 51 52  2  0  0  0  0
 51 53  1  0  0  0  0
 53 54  2  0  0  0  0
M  CHG  1  21   1
M  END
$$$$