
 OpenBabel10232011493D

 87101  0  0  1  0  0  0  0  0999 V2000
    4.8016    1.2746   -1.9305 O   0  0  0  0  0  0  0  0  0  0  0  0
    3.4788    0.7135   -1.8616 C   0  0  3  0  0  0  0  0  0  0  0  0
    2.9289    0.6331   -0.4147 C   0  0  3  0  0  0  0  0  0  0  0  0
    2.0572   -0.4837   -0.1511 O   0  0  0  0  0  0  0  0  0  0  0  0
    1.9742   -1.5708   -0.9613 C   0  0  0  0  0  0  0  0  0  0  0  0
    2.5959   -1.6544   -2.1708 C   0  0  0  0  0  0  0  0  0  0  0  0
    3.6043   -0.6337   -2.5821 C   0  0  3  0  0  0  0  0  0  0  0  0
    4.8869   -1.2405   -2.3718 O   0  0  0  0  0  0  0  0  0  0  0  0
    2.3673   -2.7768   -3.0062 C   0  0  0  0  0  0  0  0  0  0  0  0
    1.5100   -3.8568   -2.6407 C   0  0  0  0  0  0  0  0  0  0  0  0
    0.9735   -3.8159   -1.3610 C   0  0  0  0  0  0  0  0  0  0  0  0
    1.1919   -2.6557   -0.5288 C   0  0  0  0  0  0  0  0  0  0  0  0
    0.6081   -2.5645    0.6624 F   0  0  0  0  0  0  0  0  0  0  0  0
    0.2270   -4.9491   -0.9540 C   0  0  0  0  0  0  0  0  0  0  0  0
   -0.3352   -5.1778    0.6575 Cl  0  0  0  0  0  0  0  0  0  0  0  0
   -0.0809   -5.9995   -1.8641 C   0  0  0  0  0  0  0  0  0  0  0  0
    0.3431   -6.0594   -3.1928 C   0  0  0  0  0  0  0  0  0  0  0  0
    1.2071   -4.9699   -3.5389 C   0  0  0  0  0  0  0  0  0  0  0  0
    1.9364   -4.9244   -5.1286 Cl  0  0  0  0  0  0  0  0  0  0  0  0
   -0.0683   -7.2138   -4.1447 C   0  0  0  0  0  0  0  0  0  0  0  0
   -0.3859   -6.9357   -5.5146 C   0  0  0  0  0  0  0  0  0  0  0  0
   -0.6585   -7.9216   -6.5726 C   0  0  0  0  0  0  0  0  0  0  0  0
   -1.0140   -7.8286   -8.0963 C   0  0  0  0  0  0  0  0  0  0  0  0
   -1.3334   -9.0081   -8.8008 C   0  0  0  0  0  0  0  0  0  0  0  0
   -1.8082   -9.0473  -10.1290 N   0  0  0  0  0  0  0  0  0  0  0  0
   -1.2989  -10.1887   -8.0765 C   0  0  0  0  0  0  0  0  0  0  0  0
   -0.9295  -10.2816   -6.8040 N   0  0  0  0  0  0  0  0  0  0  0  0
   -0.6296   -9.2331   -6.0455 N   0  3  0  0  0  0  0  0  0  0  0  0
   -0.3634   -9.5330   -4.7195 N   0  3  0  0  0  0  0  0  0  0  0  0
   -0.1852   -8.5831   -3.7548 C   0  0  0  0  0  0  0  0  0  0  0  0
   -0.2521   -9.0341   -2.3106 C   0  0  0  0  0  0  0  0  0  0  0  0
   -0.2138  -11.2183   -4.3150 Cl  0  0  0  0  0  0  0  0  0  0  0  0
   -0.9288   -6.4796   -9.0263 N   0  3  0  0  0  0  0  0  0  0  0  0
   -1.7990   -6.1962  -10.1156 N   0  3  0  0  0  0  0  0  0  0  0  0
   -3.4215   -6.8001  -10.1658 Cl  0  0  0  0  0  0  0  0  0  0  0  0
   -1.5742   -5.1505  -11.0098 C   0  0  0  0  0  0  0  0  0  0  0  0
   -0.5602   -4.1653  -10.8678 C   0  0  0  0  0  0  0  0  0  0  0  0
    0.3019   -4.3950   -9.8044 C   0  0  0  0  0  0  0  0  0  0  0  0
    0.1267   -5.5751   -8.9001 C   0  0  0  0  0  0  0  0  0  0  0  0
    1.0517   -5.7728   -7.8715 N   0  0  0  0  0  0  0  0  0  0  0  0
    1.2765   -3.4891   -9.6388 N   0  0  0  0  0  0  0  0  0  0  0  0
    1.4921   -2.3777  -10.3931 N   0  3  0  0  0  0  0  0  0  0  0  0
    0.6684   -2.0464  -11.4480 C   0  0  0  0  0  0  0  0  0  0  0  0
   -0.3885   -2.9704  -11.6564 N   0  3  0  0  0  0  0  0  0  0  0  0
   -1.3305   -2.6622  -12.6103 N   0  0  0  0  0  0  0  0  0  0  0  0
   -1.2769   -1.5150  -13.3366 N   0  3  0  0  0  0  0  0  0  0  0  0
   -2.3863   -1.1711  -14.2997 C   0  0  0  0  0  0  0  0  0  0  0  0
   -0.2427   -0.6752  -13.1892 C   0  0  0  0  0  0  0  0  0  0  0  0
    0.7192   -0.9347  -12.2733 N   0  3  0  0  0  0  0  0  0  0  0  0
    1.9866    0.2253  -12.2634 Cl  0  0  0  0  0  0  0  0  0  0  0  0
    2.7935   -1.4190   -9.8238 Cl  0  0  0  0  0  0  0  0  0  0  0  0
    2.1466    1.9694   -0.0374 C   0  0  3  0  0  0  0  0  0  0  0  0
    3.0808    3.1982   -0.0881 C   0  0  0  0  0  0  0  0  0  0  0  0
    2.3636    4.5140    0.1778 C   0  0  0  0  0  0  0  0  0  0  0  0
    1.5105    4.4760    1.4035 C   0  0  0  0  0  0  0  0  0  0  0  0
    0.9795    3.2869    1.8834 C   0  0  0  0  0  0  0  0  0  0  0  0
    1.4147    1.9217    1.3486 C   0  0  3  0  0  0  0  0  0  0  0  0
    0.2361    0.9031    1.3779 C   0  0  3  0  0  0  0  0  0  0  0  0
   -0.3225    0.7910    0.1317 F   0  0  0  0  0  0  0  0  0  0  0  0
   -0.8958    1.1950    2.3651 C   0  0  0  0  0  0  0  0  0  0  0  0
   -0.3720    2.0146    3.5380 C   0  0  3  0  0  0  0  0  0  0  0  0
    0.0602    3.3459    2.9538 C   0  0  0  0  0  0  0  0  0  0  0  0
   -0.4473    4.5840    3.4357 C   0  0  0  0  0  0  0  0  0  0  0  0
    0.2371    5.7815    3.0892 C   0  0  0  0  0  0  0  0  0  0  0  0
    1.1939    5.6810    2.0516 C   0  0  0  0  0  0  0  0  0  0  0  0
    0.0212    7.1172    3.7375 C   0  0  0  0  0  0  0  0  0  0  0  0
    0.1942    8.3218    3.0233 C   0  0  0  0  0  0  0  0  0  0  0  0
    0.1213    9.5891    3.6436 C   0  0  0  0  0  0  0  0  0  0  0  0
    0.8164   10.7808    2.9840 C   0  0  3  0  0  0  0  0  0  0  0  0
    2.3364   10.5131    3.1170 C   0  0  0  0  0  0  0  0  0  0  0  0
    3.2110   11.6607    2.6435 C   0  0  0  0  0  0  0  0  0  0  0  0
    2.8543   12.9651    3.3589 C   0  0  3  0  0  0  0  0  0  0  0  0
    1.3673   13.2997    3.0904 C   0  0  3  0  0  0  0  0  0  0  0  0
    0.4163   12.1609    3.5742 C   0  0  3  0  0  0  0  0  0  0  0  0
    0.2941   12.0920    5.1102 C   0  0  0  0  0  0  0  0  0  0  0  0
   -0.6947   11.0158    5.5716 C   0  0  3  0  0  0  0  0  0  0  0  0
   -0.3628    9.6814    4.9529 C   0  0  0  0  0  0  0  0  0  0  0  0
   -0.5221    8.5075    5.6876 C   0  0  0  0  0  0  0  0  0  0  0  0
   -0.2414    7.2699    5.1079 C   0  0  0  0  0  0  0  0  0  0  0  0
   -0.1691    6.2202    5.9397 F   0  0  0  0  0  0  0  0  0  0  0  0
   -2.1485   11.3891    5.2479 C   0  0  0  0  0  0  0  0  0  0  0  0
    0.9657   14.6625    3.6676 C   0  0  0  0  0  0  0  0  0  0  0  0
    3.8217   14.0659    2.9168 C   0  0  0  0  0  0  0  0  0  0  0  0
   -1.7501    4.5705    4.2404 C   0  0  3  0  0  0  0  0  0  0  0  0
   -2.4057    3.1891    4.3840 C   0  0  0  0  0  0  0  0  0  0  0  0
   -1.3574    2.1411    4.6949 C   0  0  0  0  0  0  0  0  0  0  0  0
   -2.9729    5.6290    3.4481 Cl  0  0  0  0  0  0  0  0  0  0  0  0
  1  2  1  0  0  0  0
  2  3  1  0  0  0  0
  2  7  1  0  0  0  0
  3  4  1  0  0  0  0
  3 52  1  0  0  0  0
  4  5  1  0  0  0  0
  5  6  2  0  0  0  0
  5 12  1  0  0  0  0
  6  7  1  0  0  0  0
  6  9  1  0  0  0  0
  7  8  1  0  0  0  0
  9 10  2  0  0  0  0
 10 11  1  0  0  0  0
 10 18  1  0  0  0  0
 11 12  2  0  0  0  0
 11 14  1  0  0  0  0
 12 13  1  0  0  0  0
 14 15  1  0  0  0  0
 14 16  2  0  0  0  0
 16 17  1  0  0  0  0
 17 18  2  0  0  0  0
 17 20  1  0  0  0  0
 18 19  1  0  0  0  0
 20 21  2  0  0  0  0
 20 30  1  0  0  0  0
 21 22  1  0  0  0  0
 22 23  2  0  0  0  0
 22 28  1  0  0  0  0
 23 24  1  0  0  0  0
 23 33  1  0  0  0  0
 24 25  1  0  0  0  0
 24 26  2  0  0  0  0
 26 27  1  0  0  0  0
 27 28  2  0  0  0  0
 28 29  1  0  0  0  0
 29 30  2  0  0  0  0
 29 32  1  0  0  0  0
 30 31  1  0  0  0  0
 33 34  2  0  0  0  0
 33 39  1  0  0  0  0
 34 35  1  0  0  0  0
 34 36  1  0  0  0  0
 36 37  2  0  0  0  0
 37 38  1  0  0  0  0
 37 44  1  0  0  0  0
 38 39  2  0  0  0  0
 38 41  1  0  0  0  0
 39 40  1  0  0  0  0
 41 42  2  0  0  0  0
 42 43  1  0  0  0  0
 42 51  1  0  0  0  0
 43 44  2  0  0  0  0
 43 49  1  0  0  0  0
 44 45  1  0  0  0  0
 45 46  2  0  0  0  0
 46 47  1  0  0  0  0
 46 48  1  0  0  0  0
 48 49  2  0  0  0  0
 49 50  1  0  0  0  0
 52 53  1  0  0  0  0
 52 57  1  0  0  0  0
 53 54  1  0  0  0  0
 54 55  1  0  0  0  0
 55 56  2  0  0  0  0
 55 65  1  0  0  0  0
 56 57  1  0  0  0  0
 56 62  1  0  0  0  0
 57 58  1  0  0  0  0
 58 59  1  0  0  0  0
 58 60  1  0  0  0  0
 60 61  1  0  0  0  0
 61 62  1  0  0  0  0
 61 86  1  0  0  0  0
 62 63  2  0  0  0  0
 63 64  1  0  0  0  0
 63 84  1  0  0  0  0
 64 65  2  0  0  0  0
 64 66  1  0  0  0  0
 66 67  2  0  0  0  0
 66 79  1  0  0  0  0
 67 68  1  0  0  0  0
 68 69  1  0  0  0  0
 68 77  2  0  0  0  0
 69 70  1  0  0  0  0
 69 74  1  0  0  0  0
 70 71  1  0  0  0  0
 71 72  1  0  0  0  0
 72 73  1  0  0  0  0
 72 83  1  0  0  0  0
 73 74  1  0  0  0  0
 73 82  1  0  0  0  0
 74 75  1  0  0  0  0
 75 76  1  0  0  0  0
 76 77  1  0  0  0  0
 76 81  1  0  0  0  0
 77 78  1  0  0  0  0
 78 79  2  0  0  0  0
 79 80  1  0  0  0  0
 84 85  1  0  0  0  0
 84 87  1  0  0  0  0
 85 86  1  0  0  0  0
M  CHG  8  28   1  29   1  33   1  34   1  42   1  44   1  46   1  49   1
M  END
$$$$