
 OpenBabel11232002093D

 52 62  0  0  1  0  0  0  0  0999 V2000
   -4.5477  -18.9907   -2.1597 O   0  0  0  0  0  0  0  0  0  0  0  0
   -3.7467  -18.7139   -3.2359 C   0  0  0  0  0  0  0  0  0  0  0  0
   -3.6102  -17.4839   -3.7472 C   0  0  0  0  0  0  0  0  0  0  0  0
   -4.3047  -16.4019   -3.2291 O   0  0  0  0  0  0  0  0  0  0  0  0
   -3.5921  -15.1656   -3.2921 C   0  0  2  0  0  0  0  0  0  0  0  0
   -4.2835  -14.1151   -2.5859 O   0  0  0  0  0  0  0  0  0  0  0  0
   -5.4539  -13.5827   -3.1091 C   0  0  0  0  0  0  0  0  0  0  0  0
   -5.7957  -12.2992   -2.8700 C   0  0  0  0  0  0  0  0  0  0  0  0
   -6.9701  -11.7232   -3.3485 O   0  0  0  0  0  0  0  0  0  0  0  0
   -7.9143  -12.5121   -3.9856 C   0  0  0  0  0  0  0  0  0  0  0  0
   -7.6869  -13.8122   -4.2432 C   0  0  0  0  0  0  0  0  0  0  0  0
   -6.3819  -14.4747   -3.8955 C   0  0  0  0  0  0  0  0  0  0  0  0
   -8.7269  -14.6768   -4.8942 C   0  0  3  0  0  0  0  0  0  0  0  0
   -8.9808  -15.7761   -4.0341 O   0  0  0  0  0  0  0  0  0  0  0  0
   -9.8439  -16.7053   -4.5267 C   0  0  0  0  0  0  0  0  0  0  0  0
   -9.8907  -17.8459   -4.1018 O   0  0  0  0  0  0  0  0  0  0  0  0
  -10.6077  -16.2590   -5.5567 O   0  0  0  0  0  0  0  0  0  0  0  0
  -11.0928  -14.9291   -5.4551 C   0  0  3  0  0  0  0  0  0  0  0  0
  -10.0272  -13.9716   -5.0392 C   0  0  0  0  0  0  0  0  0  0  0  0
  -10.1809  -12.6543   -4.7678 C   0  0  0  0  0  0  0  0  0  0  0  0
   -9.0987  -11.9077   -4.3255 O   0  3  0  0  0  0  0  0  0  0  0  0
  -11.4546  -11.8988   -4.8899 C   0  0  0  0  0  0  0  0  0  0  0  0
  -11.7106  -10.7785   -4.0217 O   0  0  0  0  0  0  0  0  0  0  0  0
  -11.4606  -10.5634   -5.4220 O   0  0  0  0  0  0  0  0  0  0  0  0
  -11.5107  -14.5027   -6.7351 O   0  0  0  0  0  0  0  0  0  0  0  0
   -4.9732  -11.3466   -2.1016 C   0  0  0  0  0  0  0  0  0  0  0  0
   -3.8908  -10.7512   -2.7298 C   0  0  0  0  0  0  0  0  0  0  0  0
   -3.1781   -9.7692   -2.1560 N   0  0  0  0  0  0  0  0  0  0  0  0
   -3.5269   -9.3176   -0.9112 N   0  0  0  0  0  0  0  0  0  0  0  0
   -4.5546   -9.8485   -0.2408 C   0  0  0  0  0  0  0  0  0  0  0  0
   -5.3129  -10.9073   -0.7974 C   0  0  0  0  0  0  0  0  0  0  0  0
   -6.3796  -11.4443   -0.0414 C   0  0  0  0  0  0  0  0  0  0  0  0
   -6.7036  -10.8738    1.1842 C   0  0  0  0  0  0  0  0  0  0  0  0
   -5.9935   -9.7965    1.7167 C   0  0  0  0  0  0  0  0  0  0  0  0
   -4.8999   -9.3172    1.0041 C   0  0  0  0  0  0  0  0  0  0  0  0
   -6.2968   -9.1817    2.9226 O   0  0  0  0  0  0  0  0  0  0  0  0
   -7.6499   -9.3718    3.4663 C   0  0  1  0  0  0  0  0  0  0  0  0
   -8.3077  -10.5629    3.0497 C   0  0  0  0  0  0  0  0  0  0  0  0
   -9.3177  -11.3344    3.1600 N   0  0  0  0  0  0  0  0  0  0  0  0
   -8.8184  -12.0858    1.9898 N   0  0  0  0  0  0  0  0  0  0  0  0
   -7.8375  -11.2682    1.9272 C   0  0  0  0  0  0  0  0  0  0  0  0
   -7.8773   -8.9372    4.7776 O   0  0  0  0  0  0  0  0  0  0  0  0
   -8.5047   -8.1635    3.6999 C   0  0  1  0  0  0  0  0  0  0  0  0
   -7.7787   -7.0129    3.1477 O   0  0  0  0  0  0  0  0  0  0  0  0
   -8.5768   -6.8066    4.1701 C   0  0  0  0  0  0  0  0  0  0  0  0
   -9.4969   -6.0355    4.3284 O   0  0  0  0  0  0  0  0  0  0  0  0
   -3.2259  -14.7798   -4.7247 C   0  0  0  0  0  0  0  0  0  0  0  0
   -3.3103  -13.6545   -5.1997 O   0  0  0  0  0  0  0  0  0  0  0  0
   -2.8021  -15.9572   -5.5656 C   0  0  0  0  0  0  0  0  0  0  0  0
   -2.5993  -15.8108   -6.7603 O   0  0  0  0  0  0  0  0  0  0  0  0
   -2.7270  -17.3286   -4.9358 C   0  0  0  0  0  0  0  0  0  0  0  0
   -2.0014  -18.1999   -5.3807 O   0  0  0  0  0  0  0  0  0  0  0  0
  1  2  1  0  0  0  0
  2  3  2  0  0  0  0
  3  4  1  0  0  0  0
  3 51  1  0  0  0  0
  4  5  1  0  0  0  0
  5  6  1  6  0  0  0
  5 47  1  0  0  0  0
  6  7  1  0  0  0  0
  7  8  2  0  0  0  0
  7 12  1  0  0  0  0
  8  9  1  0  0  0  0
  8 26  1  0  0  0  0
  9 10  1  0  0  0  0
 10 11  2  0  0  0  0
 10 21  1  0  0  0  0
 11 12  1  0  0  0  0
 11 13  1  0  0  0  0
 13 14  1  0  0  0  0
 13 19  1  0  0  0  0
 14 15  1  0  0  0  0
 15 16  2  0  0  0  0
 15 17  1  0  0  0  0
 17 18  1  0  0  0  0
 18 19  1  0  0  0  0
 18 25  1  0  0  0  0
 19 20  2  0  0  0  0
 20 21  1  0  0  0  0
 20 22  1  0  0  0  0
 22 23  1  0  0  0  0
 22 24  1  0  0  0  0
 23 24  1  0  0  0  0
 26 27  2  0  0  0  0
 26 31  1  0  0  0  0
 27 28  1  0  0  0  0
 28 29  2  0  0  0  0
 29 30  1  0  0  0  0
 30 31  2  0  0  0  0
 30 35  1  0  0  0  0
 31 32  1  0  0  0  0
 32 33  2  0  0  0  0
 33 34  1  0  0  0  0
 33 41  1  0  0  0  0
 34 35  2  0  0  0  0
 34 36  1  0  0  0  0
 37 36  1  6  0  0  0
 37 38  1  0  0  0  0
 37 42  1  0  0  0  0
 37 43  1  0  0  0  0
 38 39  2  0  0  0  0
 38 41  1  0  0  0  0
 39 40  1  0  0  0  0
 40 41  2  0  0  0  0
 43 42  1  1  0  0  0
 43 44  1  0  0  0  0
 43 45  1  0  0  0  0
 44 45  1  0  0  0  0
 45 46  2  0  0  0  0
 47 48  2  0  0  0  0
 47 49  1  0  0  0  0
 49 50  2  0  0  0  0
 49 51  1  0  0  0  0
 51 52  2  0  0  0  0
M  CHG  1  21   1
M  END
$$$$