
 OpenBabel11212015563D

 53 61  0  0  1  0  0  0  0  0999 V2000
   -0.7023    3.7367   -3.5541 O   0  0  0  0  0  0  0  0  0  0  0  0
   -0.3888    3.1628   -2.3451 C   0  0  0  0  0  0  0  0  0  0  0  0
    0.2594    1.9974   -2.2555 C   0  0  0  0  0  0  0  0  0  0  0  0
    0.6060    1.3001   -3.4016 O   0  0  0  0  0  0  0  0  0  0  0  0
    1.9426    0.8264   -3.3279 C   0  0  2  0  0  0  0  0  0  0  0  0
    2.3580    0.2841   -4.5963 O   0  0  0  0  0  0  0  0  0  0  0  0
    2.3946    1.1193   -5.6936 C   0  0  0  0  0  0  0  0  0  0  0  0
    2.3296    0.6177   -6.9479 C   0  0  0  0  0  0  0  0  0  0  0  0
    2.3721    1.4441   -8.0771 O   0  0  0  0  0  0  0  0  0  0  0  0
    2.3926    2.8396   -7.9366 C   0  0  0  0  0  0  0  0  0  0  0  0
    2.5137    3.4058   -6.7234 C   0  0  0  0  0  0  0  0  0  0  0  0
    2.5569    2.6060   -5.4650 C   0  0  0  0  0  0  0  0  0  0  0  0
    2.5787    4.8957   -6.5405 C   0  0  3  0  0  0  0  0  0  0  0  0
    3.8434    5.2011   -5.9817 O   0  0  0  0  0  0  0  0  0  0  0  0
    4.0548    6.5123   -5.6882 C   0  0  0  0  0  0  0  0  0  0  0  0
    4.9034    6.8602   -4.8861 O   0  0  0  0  0  0  0  0  0  0  0  0
    3.2239    7.3816   -6.3163 O   0  0  0  0  0  0  0  0  0  0  0  0
    2.6930    7.0772   -7.6026 C   0  0  3  0  0  0  0  0  0  0  0  0
    2.5244    5.6172   -7.8293 C   0  0  0  0  0  0  0  0  0  0  0  0
    2.3680    4.9891   -9.0164 C   0  0  0  0  0  0  0  0  0  0  0  0
    2.2888    3.6031   -9.0765 O   0  3  0  0  0  0  0  0  0  0  0  0
    2.3029    5.7025  -10.3137 C   0  0  0  0  0  0  0  0  0  0  0  0
    3.4891    5.9407  -11.0784 O   0  0  0  0  0  0  0  0  0  0  0  0
    2.5122    4.9910  -11.5443 O   0  0  0  0  0  0  0  0  0  0  0  0
    1.3841    7.6061   -7.6778 O   0  0  0  0  0  0  0  0  0  0  0  0
    2.1952   -0.8581   -7.2318 C   0  0  0  0  0  0  0  0  0  0  0  0
    2.8679   -1.7756   -6.4173 C   0  0  0  0  0  0  0  0  0  0  0  0
    2.7348   -3.0950   -6.6041 N   0  3  0  0  0  0  0  0  0  0  0  0
    3.3619   -3.9357   -5.7487 F   0  0  0  0  0  0  0  0  0  0  0  0
    2.0268   -3.6131   -7.5803 N   0  0  0  0  0  0  0  0  0  0  0  0
    1.3841   -2.8037   -8.4225 C   0  0  0  0  0  0  0  0  0  0  0  0
    1.4209   -1.3980   -8.2934 C   0  0  0  0  0  0  0  0  0  0  0  0
    0.6852   -0.6395   -9.2244 C   0  0  0  0  0  0  0  0  0  0  0  0
   -0.0174   -1.2411  -10.2789 C   0  0  0  0  0  0  0  0  0  0  0  0
   -0.0631   -2.6172  -10.3836 C   0  0  0  0  0  0  0  0  0  0  0  0
    0.6471   -3.3840   -9.4588 C   0  0  0  0  0  0  0  0  0  0  0  0
   -0.7550   -3.2887  -11.3471 O   0  0  0  0  0  0  0  0  0  0  0  0
   -1.7936   -2.5571  -12.0256 C   0  0  2  0  0  0  0  0  0  0  0  0
   -1.4186   -1.1331  -12.3803 C   0  0  0  0  0  0  0  0  0  0  0  0
   -1.6973   -0.5667  -13.4267 O   0  0  0  0  0  0  0  0  0  0  0  0
   -0.6489   -0.4057  -11.2982 C   0  0  0  0  0  0  0  0  0  0  0  0
   -0.4840    0.8063  -11.2875 O   0  0  0  0  0  0  0  0  0  0  0  0
   -3.0603   -2.5935  -11.2302 C   0  0  1  0  0  0  0  0  0  0  0  0
   -3.0173   -1.9807   -9.9114 O   0  0  0  0  0  0  0  0  0  0  0  0
   -4.2504   -2.3699  -11.9739 O   0  0  0  0  0  0  0  0  0  0  0  0
   -4.1127   -3.5933  -11.4276 C   0  0  0  0  0  0  0  0  0  0  0  0
   -4.7797   -4.1490  -10.5798 O   0  0  0  0  0  0  0  0  0  0  0  0
    2.0036   -0.2863   -2.3040 C   0  0  0  0  0  0  0  0  0  0  0  0
    2.5068   -1.3839   -2.5001 O   0  0  0  0  0  0  0  0  0  0  0  0
    1.3609    0.1152   -0.9889 C   0  0  0  0  0  0  0  0  0  0  0  0
    1.4229   -0.6269   -0.0261 O   0  0  0  0  0  0  0  0  0  0  0  0
    0.6502    1.4615   -0.9148 C   0  0  0  0  0  0  0  0  0  0  0  0
    0.5093    2.0696    0.1286 O   0  0  0  0  0  0  0  0  0  0  0  0
  1  2  1  0  0  0  0
  2  3  2  0  0  0  0
  3  4  1  0  0  0  0
  3 52  1  0  0  0  0
  4  5  1  0  0  0  0
  5  6  1  6  0  0  0
  5 48  1  0  0  0  0
  6  7  1  0  0  0  0
  7  8  2  0  0  0  0
  7 12  1  0  0  0  0
  8  9  1  0  0  0  0
  8 26  1  0  0  0  0
  9 10  1  0  0  0  0
 10 11  2  0  0  0  0
 10 21  1  0  0  0  0
 11 12  1  0  0  0  0
 11 13  1  0  0  0  0
 13 14  1  0  0  0  0
 13 19  1  0  0  0  0
 14 15  1  0  0  0  0
 15 16  2  0  0  0  0
 15 17  1  0  0  0  0
 17 18  1  0  0  0  0
 18 19  1  0  0  0  0
 18 25  1  0  0  0  0
 19 20  2  0  0  0  0
 20 21  1  0  0  0  0
 20 22  1  0  0  0  0
 22 23  1  0  0  0  0
 22 24  1  0  0  0  0
 23 24  1  0  0  0  0
 26 27  2  0  0  0  0
 26 32  1  0  0  0  0
 27 28  1  0  0  0  0
 28 29  1  0  0  0  0
 28 30  2  0  0  0  0
 30 31  1  0  0  0  0
 31 32  2  0  0  0  0
 31 36  1  0  0  0  0
 32 33  1  0  0  0  0
 33 34  2  0  0  0  0
 34 35  1  0  0  0  0
 34 41  1  0  0  0  0
 35 36  2  0  0  0  0
 35 37  1  0  0  0  0
 38 37  1  1  0  0  0
 38 39  1  0  0  0  0
 38 43  1  0  0  0  0
 39 40  2  0  0  0  0
 39 41  1  0  0  0  0
 41 42  2  0  0  0  0
 43 44  1  1  0  0  0
 43 45  1  0  0  0  0
 43 46  1  0  0  0  0
 45 46  1  0  0  0  0
 46 47  2  0  0  0  0
 48 49  2  0  0  0  0
 48 50  1  0  0  0  0
 50 51  2  0  0  0  0
 50 52  1  0  0  0  0
 52 53  2  0  0  0  0
M  CHG  2  21   1  28   1
M  END
$$$$