
 OpenBabel11272002493D

 53 61  0  0  1  0  0  0  0  0999 V2000
    3.1366    5.5780   -6.2730 O   0  0  0  0  0  0  0  0  0  0  0  0
    2.8558    4.2384   -6.2122 C   0  0  0  0  0  0  0  0  0  0  0  0
    2.8597    3.5453   -5.0670 C   0  0  0  0  0  0  0  0  0  0  0  0
    3.1879    4.1569   -3.8591 O   0  0  0  0  0  0  0  0  0  0  0  0
    2.5256    3.6085   -2.7272 C   0  0  2  0  0  0  0  0  0  0  0  0
    2.9635    4.2066   -1.4786 O   0  0  0  0  0  0  0  0  0  0  0  0
    2.8701    5.5625   -1.2210 C   0  0  0  0  0  0  0  0  0  0  0  0
    3.7258    6.1287   -0.3457 C   0  0  0  0  0  0  0  0  0  0  0  0
    3.7546    7.4799   -0.0425 O   0  0  0  0  0  0  0  0  0  0  0  0
    2.8703    8.3393   -0.6754 C   0  0  0  0  0  0  0  0  0  0  0  0
    1.8989    7.8687   -1.4824 C   0  0  0  0  0  0  0  0  0  0  0  0
    1.7630    6.3928   -1.8213 C   0  0  0  0  0  0  0  0  0  0  0  0
    0.8805    8.7979   -2.0843 C   0  0  3  0  0  0  0  0  0  0  0  0
   -0.3647    8.4512   -1.4987 O   0  0  0  0  0  0  0  0  0  0  0  0
   -1.4137    9.2690   -1.7111 C   0  0  0  0  0  0  0  0  0  0  0  0
   -2.5880    8.8816   -1.3964 N   0  0  0  0  0  0  0  0  0  0  0  0
   -1.1934   10.4936   -2.2228 O   0  0  0  0  0  0  0  0  0  0  0  0
    0.1011   11.1036   -2.3314 C   0  0  0  0  0  0  0  0  0  0  0  0
    1.1517   10.2243   -1.7500 C   0  0  0  0  0  0  0  0  0  0  0  0
    2.1863   10.6256   -0.9805 C   0  0  0  0  0  0  0  0  0  0  0  0
    3.0265    9.6820   -0.4181 O   0  3  0  0  0  0  0  0  0  0  0  0
    2.5124   12.0372   -0.7038 C   0  0  3  0  0  0  0  0  0  0  0  0
    3.4304   12.6777   -1.5719 N   0  0  0  0  0  0  0  0  0  0  0  0
    3.8847   12.3403   -0.4642 N   0  0  0  0  0  0  0  0  0  0  0  0
    4.7424    5.3561    0.3771 C   0  0  0  0  0  0  0  0  0  0  0  0
    4.4087    4.7976    1.6060 C   0  0  0  0  0  0  0  0  0  0  0  0
    5.3181    4.1095    2.3021 N   0  3  0  0  0  0  0  0  0  0  0  0
    4.9682    3.5806    3.4906 F   0  0  0  0  0  0  0  0  0  0  0  0
    6.5590    3.9425    1.8754 N   0  0  0  0  0  0  0  0  0  0  0  0
    6.9256    4.4282    0.6792 C   0  0  0  0  0  0  0  0  0  0  0  0
    6.0347    5.1537   -0.1260 C   0  0  0  0  0  0  0  0  0  0  0  0
    6.4612    5.6260   -1.3883 C   0  0  0  0  0  0  0  0  0  0  0  0
    7.7467    5.3479   -1.8612 C   0  0  0  0  0  0  0  0  0  0  0  0
    8.1446    5.8048   -3.1963 C   0  0  0  0  0  0  0  0  0  0  0  0
    7.3706    6.4528   -3.8835 O   0  0  0  0  0  0  0  0  0  0  0  0
    9.5452    5.4621   -3.6431 C   0  0  0  0  0  0  0  0  0  0  0  0
   10.0706    6.0790   -4.5568 O   0  0  0  0  0  0  0  0  0  0  0  0
   10.1740    4.3215   -2.8726 C   0  0  1  0  0  0  0  0  0  0  0  0
    9.9110    4.3345   -1.4582 O   0  0  0  0  0  0  0  0  0  0  0  0
    8.6364    4.6395   -1.0754 C   0  0  0  0  0  0  0  0  0  0  0  0
    8.2179    4.2146    0.1917 C   0  0  0  0  0  0  0  0  0  0  0  0
    9.0855    3.5478    0.9693 F   0  0  0  0  0  0  0  0  0  0  0  0
    9.7731    2.9970   -3.4590 C   0  0  1  0  0  0  0  0  0  0  0  0
    8.3618    2.6899   -3.4653 O   0  0  0  0  0  0  0  0  0  0  0  0
   10.4919    2.6167   -4.6322 O   0  0  0  0  0  0  0  0  0  0  0  0
   10.7103    1.8063   -3.4745 C   0  0  3  0  0  0  0  0  0  0  0  0
   10.0660    0.5213   -3.5188 O   0  0  0  0  0  0  0  0  0  0  0  0
    2.8616    2.1289   -2.5859 C   0  0  0  0  0  0  0  0  0  0  0  0
    3.2637    1.5945   -1.5565 O   0  0  0  0  0  0  0  0  0  0  0  0
    2.6646    1.3458   -3.8565 C   0  0  0  0  0  0  0  0  0  0  0  0
    2.5808    0.1237   -3.8153 O   0  0  0  0  0  0  0  0  0  0  0  0
    2.5594    2.0872   -5.1668 C   0  0  0  0  0  0  0  0  0  0  0  0
    2.2328    1.5202   -6.2031 O   0  0  0  0  0  0  0  0  0  0  0  0
  1  2  1  0  0  0  0
  2  3  2  0  0  0  0
  3  4  1  0  0  0  0
  3 52  1  0  0  0  0
  4  5  1  0  0  0  0
  5  6  1  1  0  0  0
  5 48  1  0  0  0  0
  6  7  1  0  0  0  0
  7  8  2  0  0  0  0
  7 12  1  0  0  0  0
  8  9  1  0  0  0  0
  8 25  1  0  0  0  0
  9 10  1  0  0  0  0
 10 11  2  0  0  0  0
 10 21  1  0  0  0  0
 11 12  1  0  0  0  0
 11 13  1  0  0  0  0
 13 14  1  0  0  0  0
 13 19  1  0  0  0  0
 14 15  1  0  0  0  0
 15 16  2  0  0  0  0
 15 17  1  0  0  0  0
 17 18  1  0  0  0  0
 18 19  1  0  0  0  0
 19 20  2  0  0  0  0
 20 21  1  0  0  0  0
 20 22  1  0  0  0  0
 22 23  1  0  0  0  0
 22 24  1  0  0  0  0
 23 24  2  0  0  0  0
 25 26  2  0  0  0  0
 25 31  1  0  0  0  0
 26 27  1  0  0  0  0
 27 28  1  0  0  0  0
 27 29  2  0  0  0  0
 29 30  1  0  0  0  0
 30 31  2  0  0  0  0
 30 41  1  0  0  0  0
 31 32  1  0  0  0  0
 32 33  2  0  0  0  0
 33 34  1  0  0  0  0
 33 40  1  0  0  0  0
 34 35  2  0  0  0  0
 34 36  1  0  0  0  0
 36 37  2  0  0  0  0
 38 36  1  6  0  0  0
 38 39  1  0  0  0  0
 38 43  1  0  0  0  0
 39 40  1  0  0  0  0
 40 41  2  0  0  0  0
 41 42  1  0  0  0  0
 43 44  1  1  0  0  0
 43 45  1  0  0  0  0
 43 46  1  0  0  0  0
 45 46  1  0  0  0  0
 46 47  1  0  0  0  0
 48 49  2  0  0  0  0
 48 50  1  0  0  0  0
 50 51  2  0  0  0  0
 50 52  1  0  0  0  0
 52 53  2  0  0  0  0
M  CHG  2  21   1  27   1
M  END
$$$$