
 OpenBabel11222001103D

 54 62  0  0  1  0  0  0  0  0999 V2000
    6.1061    1.4171    6.6827 O   0  0  0  0  0  0  0  0  0  0  0  0
    6.1530    1.9519    5.4184 C   0  0  0  0  0  0  0  0  0  0  0  0
    5.4365    1.4592    4.4032 C   0  0  0  0  0  0  0  0  0  0  0  0
    4.6516    0.3263    4.5550 O   0  0  0  0  0  0  0  0  0  0  0  0
    3.2897    0.6095    4.2583 C   0  0  2  0  0  0  0  0  0  0  0  0
    2.4649   -0.5774    4.4337 O   0  0  0  0  0  0  0  0  0  0  0  0
    2.4414   -1.2092    5.6723 C   0  0  0  0  0  0  0  0  0  0  0  0
    2.2061   -2.5440    5.7932 C   0  0  0  0  0  0  0  0  0  0  0  0
    2.2552   -3.1675    7.0565 O   0  0  0  0  0  0  0  0  0  0  0  0
    2.7123   -2.4741    8.1848 C   0  0  0  0  0  0  0  0  0  0  0  0
    2.8572   -1.1385    8.1529 C   0  0  0  0  0  0  0  0  0  0  0  0
    2.6211   -0.3463    6.9052 C   0  0  0  0  0  0  0  0  0  0  0  0
    3.3232   -0.3511    9.3460 C   0  0  3  0  0  0  0  0  0  0  0  0
    2.2582    0.4865    9.7587 O   0  0  0  0  0  0  0  0  0  0  0  0
    2.4800    1.2614   10.8541 C   0  0  0  0  0  0  0  0  0  0  0  0
    1.7485    2.2086   11.1246 O   0  0  0  0  0  0  0  0  0  0  0  0
    3.5634    0.9413   11.5982 O   0  0  0  0  0  0  0  0  0  0  0  0
    4.0879   -0.3834   11.6402 C   0  0  3  0  0  0  0  0  0  0  0  0
    3.6281   -1.2209   10.5002 C   0  0  0  0  0  0  0  0  0  0  0  0
    3.4842   -2.5645   10.4717 C   0  0  0  0  0  0  0  0  0  0  0  0
    3.0044   -3.1969    9.3282 O   0  3  0  0  0  0  0  0  0  0  0  0
    3.8044   -3.4357   11.6276 C   0  0  0  0  0  0  0  0  0  0  0  0
    2.8069   -3.7562   12.6053 O   0  0  0  0  0  0  0  0  0  0  0  0
    3.2870   -4.7736   11.7046 O   0  0  0  0  0  0  0  0  0  0  0  0
    5.4946   -0.3151   11.4852 O   0  0  0  0  0  0  0  0  0  0  0  0
    1.8566   -3.4750    4.6412 C   0  0  0  0  0  0  0  0  0  0  0  0
    1.1451   -2.9632    3.5495 C   0  0  0  0  0  0  0  0  0  0  0  0
    0.8230   -3.7254    2.4975 N   0  3  0  0  0  0  0  0  0  0  0  0
    0.1398   -3.1751    1.4742 F   0  0  0  0  0  0  0  0  0  0  0  0
    1.1455   -4.9987    2.4143 N   0  0  0  0  0  0  0  0  0  0  0  0
    1.7992   -5.5851    3.4151 C   0  0  0  0  0  0  0  0  0  0  0  0
    2.1632   -4.8720    4.5829 C   0  0  0  0  0  0  0  0  0  0  0  0
    2.8128   -5.6202    5.5946 C   0  0  0  0  0  0  0  0  0  0  0  0
    3.1232   -6.9795    5.4421 C   0  0  0  0  0  0  0  0  0  0  0  0
    3.7729   -7.7017    6.5388 C   0  0  0  0  0  0  0  0  0  0  0  0
    3.8892   -7.2017    7.6500 O   0  0  0  0  0  0  0  0  0  0  0  0
    4.2277   -9.1052    6.2435 C   0  0  0  0  0  0  0  0  0  0  0  0
    4.5104   -9.9308    7.2007 N   0  0  0  0  0  0  0  0  0  0  0  0
    4.3215   -9.4412    4.7697 C   0  0  1  0  0  0  0  0  0  0  0  0
    3.1828   -8.9448    4.0280 O   0  0  0  0  0  0  0  0  0  0  0  0
    2.8302   -7.6451    4.2699 C   0  0  0  0  0  0  0  0  0  0  0  0
    2.1396   -6.9409    3.2859 C   0  0  0  0  0  0  0  0  0  0  0  0
    1.8073   -7.5794    2.1515 F   0  0  0  0  0  0  0  0  0  0  0  0
    5.6020   -8.9079    4.1761 C   0  0  1  0  0  0  0  0  0  0  0  0
    5.7997   -7.4740    4.2150 O   0  0  0  0  0  0  0  0  0  0  0  0
    6.7721   -9.6766    4.4432 O   0  0  0  0  0  0  0  0  0  0  0  0
    6.3505   -9.6336    3.0742 C   0  0  3  0  0  0  0  0  0  0  0  0
    7.1192   -8.7578    2.2253 O   0  0  0  0  0  0  0  0  0  0  0  0
    3.0958    1.0592    2.8129 C   0  0  0  0  0  0  0  0  0  0  0  0
    2.0438    0.9455    2.1970 O   0  0  0  0  0  0  0  0  0  0  0  0
    4.3375    1.6599    2.1815 C   0  0  0  0  0  0  0  0  0  0  0  0
    4.4688    1.6571    0.9699 O   0  0  0  0  0  0  0  0  0  0  0  0
    5.4393    2.1654    3.0927 C   0  0  0  0  0  0  0  0  0  0  0  0
    6.1774    3.0842    2.7955 O   0  0  0  0  0  0  0  0  0  0  0  0
  1  2  1  0  0  0  0
  2  3  2  0  0  0  0
  3  4  1  0  0  0  0
  3 53  1  0  0  0  0
  4  5  1  0  0  0  0
  5  6  1  6  0  0  0
  5 49  1  0  0  0  0
  6  7  1  0  0  0  0
  7  8  2  0  0  0  0
  7 12  1  0  0  0  0
  8  9  1  0  0  0  0
  8 26  1  0  0  0  0
  9 10  1  0  0  0  0
 10 11  2  0  0  0  0
 10 21  1  0  0  0  0
 11 12  1  0  0  0  0
 11 13  1  0  0  0  0
 13 14  1  0  0  0  0
 13 19  1  0  0  0  0
 14 15  1  0  0  0  0
 15 16  2  0  0  0  0
 15 17  1  0  0  0  0
 17 18  1  0  0  0  0
 18 19  1  0  0  0  0
 18 25  1  0  0  0  0
 19 20  2  0  0  0  0
 20 21  1  0  0  0  0
 20 22  1  0  0  0  0
 22 23  1  0  0  0  0
 22 24  1  0  0  0  0
 23 24  1  0  0  0  0
 26 27  2  0  0  0  0
 26 32  1  0  0  0  0
 27 28  1  0  0  0  0
 28 29  1  0  0  0  0
 28 30  2  0  0  0  0
 30 31  1  0  0  0  0
 31 32  2  0  0  0  0
 31 42  1  0  0  0  0
 32 33  1  0  0  0  0
 33 34  2  0  0  0  0
 34 35  1  0  0  0  0
 34 41  1  0  0  0  0
 35 36  2  0  0  0  0
 35 37  1  0  0  0  0
 37 38  2  0  0  0  0
 39 37  1  1  0  0  0
 39 40  1  0  0  0  0
 39 44  1  0  0  0  0
 40 41  1  0  0  0  0
 41 42  2  0  0  0  0
 42 43  1  0  0  0  0
 44 45  1  1  0  0  0
 44 46  1  0  0  0  0
 44 47  1  0  0  0  0
 46 47  1  0  0  0  0
 47 48  1  0  0  0  0
 49 50  2  0  0  0  0
 49 51  1  0  0  0  0
 51 52  2  0  0  0  0
 51 53  1  0  0  0  0
 53 54  2  0  0  0  0
M  CHG  2  21   1  28   1
M  END
$$$$