
 OpenBabel11242002343D

 52 60  0  0  1  0  0  0  0  0999 V2000
   -1.0311    4.8935   -1.2426 O   0  0  0  0  0  0  0  0  0  0  0  0
   -0.2682    5.9562   -1.6532 C   0  0  0  0  0  0  0  0  0  0  0  0
    0.4842    6.6884   -0.8210 C   0  0  0  0  0  0  0  0  0  0  0  0
    0.5140    6.4180    0.5419 O   0  0  0  0  0  0  0  0  0  0  0  0
    1.6579    6.8868    1.2691 C   0  0  2  0  0  0  0  0  0  0  0  0
    1.5975    6.4822    3.0533 S   0  0  0  0  0  0  0  0  0  0  0  0
    1.6218    4.7278    3.0729 C   0  0  0  0  0  0  0  0  0  0  0  0
    2.4642    4.0031    3.8495 C   0  0  0  0  0  0  0  0  0  0  0  0
    2.4062    2.6049    3.9227 O   0  0  0  0  0  0  0  0  0  0  0  0
    1.5444    1.9082    3.0875 C   0  0  0  0  0  0  0  0  0  0  0  0
    0.6985    2.5393    2.2627 C   0  0  0  0  0  0  0  0  0  0  0  0
    0.5766    4.0206    2.2436 C   0  0  0  0  0  0  0  0  0  0  0  0
   -0.1465    1.7773    1.2775 C   0  0  3  0  0  0  0  0  0  0  0  0
    0.2576    2.1971   -0.0292 O   0  0  0  0  0  0  0  0  0  0  0  0
    0.0484    1.4480   -1.1365 C   0  0  0  0  0  0  0  0  0  0  0  0
    0.3251    1.8751   -2.2509 O   0  0  0  0  0  0  0  0  0  0  0  0
   -0.4537    0.1987   -0.9668 O   0  0  0  0  0  0  0  0  0  0  0  0
   -0.8133   -0.3250    0.3062 C   0  0  3  0  0  0  0  0  0  0  0  0
    0.0033    0.3015    1.3661 C   0  0  0  0  0  0  0  0  0  0  0  0
    0.8261   -0.2812    2.2685 C   0  0  0  0  0  0  0  0  0  0  0  0
    1.5888    0.5352    3.0983 N   0  0  0  0  0  0  0  0  0  0  0  0
    1.0082   -1.7423    2.4288 C   0  0  0  0  0  0  0  0  0  0  0  0
    1.3144   -2.3356    3.7034 O   0  0  0  0  0  0  0  0  0  0  0  0
    0.0289   -2.5576    3.0925 O   0  0  0  0  0  0  0  0  0  0  0  0
   -2.1823   -0.0508    0.5468 O   0  0  0  0  0  0  0  0  0  0  0  0
    3.5104    4.5589    4.7371 C   0  0  0  0  0  0  0  0  0  0  0  0
    3.1694    4.8510    6.0495 C   0  0  0  0  0  0  0  0  0  0  0  0
    4.0563    5.3145    6.9485 N   0  0  0  0  0  0  0  0  0  0  0  0
    5.3529    5.5089    6.5705 N   0  0  0  0  0  0  0  0  0  0  0  0
    5.7537    5.2558    5.3185 C   0  0  0  0  0  0  0  0  0  0  0  0
    4.8559    4.7738    4.3415 C   0  0  0  0  0  0  0  0  0  0  0  0
    5.3564    4.5436    3.0366 C   0  0  0  0  0  0  0  0  0  0  0  0
    6.6992    4.8044    2.7229 C   0  0  0  0  0  0  0  0  0  0  0  0
    7.5786    5.2490    3.6988 C   0  0  0  0  0  0  0  0  0  0  0  0
    7.0895    5.4735    4.9856 C   0  0  0  0  0  0  0  0  0  0  0  0
    8.9079    5.5075    3.5105 O   0  0  0  0  0  0  0  0  0  0  0  0
    9.4877    5.1447    2.2520 C   0  0  2  0  0  0  0  0  0  0  0  0
    8.5554    5.2098    1.0667 C   0  0  0  0  0  0  0  0  0  0  0  0
    8.8566    5.6486   -0.0339 O   0  0  0  0  0  0  0  0  0  0  0  0
    7.1740    4.6682    1.3422 C   0  0  0  0  0  0  0  0  0  0  0  0
    6.4792    4.2015    0.4548 O   0  0  0  0  0  0  0  0  0  0  0  0
   10.1311    3.7974    2.3365 C   0  0  1  0  0  0  0  0  0  0  0  0
    9.2617    2.6884    2.6688 O   0  0  0  0  0  0  0  0  0  0  0  0
   11.0844    3.5403    1.3007 O   0  0  0  0  0  0  0  0  0  0  0  0
   11.5623    3.5771    2.5625 C   0  0  0  0  0  0  0  0  0  0  0  0
   12.1334    2.7214    3.1893 O   0  0  0  0  0  0  0  0  0  0  0  0
    1.6927    8.3799    1.0506 C   0  0  0  0  0  0  0  0  0  0  0  0
    1.4070    9.2792    1.8231 O   0  0  0  0  0  0  0  0  0  0  0  0
    1.9675    8.6738   -0.3921 C   0  0  0  0  0  0  0  0  0  0  0  0
    2.8383    9.4655   -0.7065 O   0  0  0  0  0  0  0  0  0  0  0  0
    1.2037    7.8584   -1.4129 C   0  0  0  0  0  0  0  0  0  0  0  0
    1.1830    8.1631   -2.5934 O   0  0  0  0  0  0  0  0  0  0  0  0
  1  2  1  0  0  0  0
  2  3  2  0  0  0  0
  3  4  1  0  0  0  0
  3 51  1  0  0  0  0
  4  5  1  0  0  0  0
  5  6  1  1  0  0  0
  5 47  1  0  0  0  0
  6  7  1  0  0  0  0
  7  8  2  0  0  0  0
  7 12  1  0  0  0  0
  8  9  1  0  0  0  0
  8 26  1  0  0  0  0
  9 10  1  0  0  0  0
 10 11  2  0  0  0  0
 10 21  1  0  0  0  0
 11 12  1  0  0  0  0
 11 13  1  0  0  0  0
 13 14  1  0  0  0  0
 13 19  1  0  0  0  0
 14 15  1  0  0  0  0
 15 16  2  0  0  0  0
 15 17  1  0  0  0  0
 17 18  1  0  0  0  0
 18 19  1  0  0  0  0
 18 25  1  0  0  0  0
 19 20  2  0  0  0  0
 20 21  1  0  0  0  0
 20 22  1  0  0  0  0
 22 23  1  0  0  0  0
 22 24  1  0  0  0  0
 23 24  1  0  0  0  0
 26 27  2  0  0  0  0
 26 31  1  0  0  0  0
 27 28  1  0  0  0  0
 28 29  2  0  0  0  0
 29 30  1  0  0  0  0
 30 31  2  0  0  0  0
 30 35  1  0  0  0  0
 31 32  1  0  0  0  0
 32 33  2  0  0  0  0
 33 34  1  0  0  0  0
 33 40  1  0  0  0  0
 34 35  2  0  0  0  0
 34 36  1  0  0  0  0
 37 36  1  1  0  0  0
 37 38  1  0  0  0  0
 37 42  1  0  0  0  0
 38 39  2  0  0  0  0
 38 40  1  0  0  0  0
 40 41  2  0  0  0  0
 42 43  1  1  0  0  0
 42 44  1  0  0  0  0
 42 45  1  0  0  0  0
 44 45  1  0  0  0  0
 45 46  2  0  0  0  0
 47 48  2  0  0  0  0
 47 49  1  0  0  0  0
 49 50  2  0  0  0  0
 49 51  1  0  0  0  0
 51 52  2  0  0  0  0
M  END
$$$$