
 OpenBabel11142002113D

 52 60  0  0  1  0  0  0  0  0999 V2000
   -2.1504    1.7980   -6.8346 O   0  0  0  0  0  0  0  0  0  0  0  0
   -2.0178    2.1577   -5.5180 C   0  0  0  0  0  0  0  0  0  0  0  0
   -1.4170    1.3784   -4.6097 C   0  0  0  0  0  0  0  0  0  0  0  0
   -0.9250    0.1359   -4.9549 O   0  0  0  0  0  0  0  0  0  0  0  0
    0.2745   -0.2102   -4.2580 C   0  0  2  0  0  0  0  0  0  0  0  0
    0.8894   -1.3579   -4.8630 O   0  0  0  0  0  0  0  0  0  0  0  0
    1.3477   -1.1614   -6.1726 C   0  0  0  0  0  0  0  0  0  0  0  0
    1.4726   -2.1716   -7.0663 C   0  0  0  0  0  0  0  0  0  0  0  0
    1.9213   -1.9807   -8.3750 O   0  0  0  0  0  0  0  0  0  0  0  0
    2.2397   -0.7068   -8.8094 C   0  0  0  0  0  0  0  0  0  0  0  0
    2.1928    0.3548   -7.9922 C   0  0  0  0  0  0  0  0  0  0  0  0
    1.7706    0.2332   -6.5725 C   0  0  0  0  0  0  0  0  0  0  0  0
    2.5156    1.7347   -8.4965 C   0  0  3  0  0  0  0  0  0  0  0  0
    3.5972    2.2369   -7.7170 O   0  0  0  0  0  0  0  0  0  0  0  0
    4.2436    3.3678   -8.0908 C   0  0  0  0  0  0  0  0  0  0  0  0
    5.0014    3.9462   -7.3230 O   0  0  0  0  0  0  0  0  0  0  0  0
    4.0330    3.8242   -9.3496 O   0  0  0  0  0  0  0  0  0  0  0  0
    3.2229    3.1644  -10.3139 C   0  0  3  0  0  0  0  0  0  0  0  0
    2.9091    1.7773   -9.9279 C   0  0  0  0  0  0  0  0  0  0  0  0
    2.9484    0.6662  -10.6971 C   0  0  0  0  0  0  0  0  0  0  0  0
    2.6017   -0.5486  -10.1233 N   0  0  0  0  0  0  0  0  0  0  0  0
    3.3175    0.6444  -12.1305 C   0  0  0  0  0  0  0  0  0  0  0  0
    4.6813    0.5016  -12.5557 O   0  0  0  0  0  0  0  0  0  0  0  0
    3.7367   -0.5599  -12.7959 O   0  0  0  0  0  0  0  0  0  0  0  0
    1.9915    3.8612  -10.4267 O   0  0  0  0  0  0  0  0  0  0  0  0
    1.2012   -3.5880   -6.7748 C   0  0  0  0  0  0  0  0  0  0  0  0
    2.2890   -4.2885   -6.3893 N   0  0  0  0  0  0  0  0  0  0  0  0
    2.1724   -5.5580   -6.1131 N   0  0  0  0  0  0  0  0  0  0  0  0
    1.0409   -6.1988   -6.2435 N   0  0  0  0  0  0  0  0  0  0  0  0
   -0.0429   -5.5596   -6.6868 C   0  0  0  0  0  0  0  0  0  0  0  0
   -0.0355   -4.1955   -6.9699 C   0  0  0  0  0  0  0  0  0  0  0  0
   -1.2197   -3.5678   -7.4318 C   0  0  0  0  0  0  0  0  0  0  0  0
   -2.3778   -4.3255   -7.6251 C   0  0  0  0  0  0  0  0  0  0  0  0
   -2.3785   -5.6889   -7.3542 C   0  0  0  0  0  0  0  0  0  0  0  0
   -1.2103   -6.2880   -6.8856 C   0  0  0  0  0  0  0  0  0  0  0  0
   -3.4493   -6.5240   -7.5156 O   0  0  0  0  0  0  0  0  0  0  0  0
   -4.7324   -5.9045   -7.6610 C   0  0  2  0  0  0  0  0  0  0  0  0
   -4.7241   -4.6385   -8.4822 C   0  0  0  0  0  0  0  0  0  0  0  0
   -5.5340   -4.3669   -9.3566 O   0  0  0  0  0  0  0  0  0  0  0  0
   -3.5990   -3.6952   -8.1363 C   0  0  0  0  0  0  0  0  0  0  0  0
   -3.7027   -2.4909   -8.2963 O   0  0  0  0  0  0  0  0  0  0  0  0
   -5.3550   -5.6737   -6.3218 C   0  0  1  0  0  0  0  0  0  0  0  0
   -4.6264   -4.8217   -5.4060 O   0  0  0  0  0  0  0  0  0  0  0  0
   -6.7688   -5.4672   -6.3606 O   0  0  0  0  0  0  0  0  0  0  0  0
   -6.3389   -6.5693   -5.7129 C   0  0  0  0  0  0  0  0  0  0  0  0
   -6.4978   -6.8942   -4.5607 O   0  0  0  0  0  0  0  0  0  0  0  0
   -0.1011   -0.3446   -2.7808 C   0  0  0  0  0  0  0  0  0  0  0  0
    0.1819   -1.3266   -2.0949 O   0  0  0  0  0  0  0  0  0  0  0  0
   -0.7175    0.9098   -2.1873 C   0  0  3  0  0  0  0  0  0  0  0  0
   -1.2759    1.8796   -3.2082 C   0  0  0  0  0  0  0  0  0  0  0  0
   -1.5866    3.0341   -2.9154 O   0  0  0  0  0  0  0  0  0  0  0  0
   -1.6546    0.6133   -1.2380 F   0  0  0  0  0  0  0  0  0  0  0  0
  1  2  1  0  0  0  0
  2  3  2  0  0  0  0
  3  4  1  0  0  0  0
  3 50  1  0  0  0  0
  4  5  1  0  0  0  0
  5  6  1  6  0  0  0
  5 47  1  0  0  0  0
  6  7  1  0  0  0  0
  7  8  2  0  0  0  0
  7 12  1  0  0  0  0
  8  9  1  0  0  0  0
  8 26  1  0  0  0  0
  9 10  1  0  0  0  0
 10 11  2  0  0  0  0
 10 21  1  0  0  0  0
 11 12  1  0  0  0  0
 11 13  1  0  0  0  0
 13 14  1  0  0  0  0
 13 19  1  0  0  0  0
 14 15  1  0  0  0  0
 15 16  2  0  0  0  0
 15 17  1  0  0  0  0
 17 18  1  0  0  0  0
 18 19  1  0  0  0  0
 18 25  1  0  0  0  0
 19 20  2  0  0  0  0
 20 21  1  0  0  0  0
 20 22  1  0  0  0  0
 22 23  1  0  0  0  0
 22 24  1  0  0  0  0
 23 24  1  0  0  0  0
 26 27  2  0  0  0  0
 26 31  1  0  0  0  0
 27 28  1  0  0  0  0
 28 29  2  0  0  0  0
 29 30  1  0  0  0  0
 30 31  2  0  0  0  0
 30 35  1  0  0  0  0
 31 32  1  0  0  0  0
 32 33  2  0  0  0  0
 33 34  1  0  0  0  0
 33 40  1  0  0  0  0
 34 35  2  0  0  0  0
 34 36  1  0  0  0  0
 37 36  1  1  0  0  0
 37 38  1  0  0  0  0
 37 42  1  0  0  0  0
 38 39  2  0  0  0  0
 38 40  1  0  0  0  0
 40 41  2  0  0  0  0
 42 43  1  1  0  0  0
 42 44  1  0  0  0  0
 42 45  1  0  0  0  0
 44 45  1  0  0  0  0
 45 46  2  0  0  0  0
 47 48  2  0  0  0  0
 47 49  1  0  0  0  0
 49 50  1  0  0  0  0
 49 52  1  0  0  0  0
 50 51  2  0  0  0  0
M  END
$$$$