
 OpenBabel11152012503D

 53 61  0  0  1  0  0  0  0  0999 V2000
    2.0015    2.6779    7.1696 O   0  0  0  0  0  0  0  0  0  0  0  0
    3.3108    2.6217    6.7664 C   0  0  0  0  0  0  0  0  0  0  0  0
    3.7954    1.5999    6.0504 C   0  0  0  0  0  0  0  0  0  0  0  0
    2.9757    0.5359    5.7202 O   0  0  0  0  0  0  0  0  0  0  0  0
    3.2733   -0.1704    4.5162 C   0  0  2  0  0  0  0  0  0  0  0  0
    2.3349   -1.2516    4.3022 O   0  0  0  0  0  0  0  0  0  0  0  0
    2.3362   -2.3350    5.1724 C   0  0  0  0  0  0  0  0  0  0  0  0
    1.9896   -3.5760    4.7626 C   0  0  0  0  0  0  0  0  0  0  0  0
    2.0791   -4.7017    5.5980 O   0  0  0  0  0  0  0  0  0  0  0  0
    2.6176   -4.5688    6.8803 C   0  0  0  0  0  0  0  0  0  0  0  0
    2.8923   -3.3586    7.3926 C   0  0  0  0  0  0  0  0  0  0  0  0
    2.7114   -2.1007    6.6092 C   0  0  0  0  0  0  0  0  0  0  0  0
    3.4781   -3.1731    8.7569 C   0  0  3  0  0  0  0  0  0  0  0  0
    2.5257   -2.4892    9.5475 O   0  0  0  0  0  0  0  0  0  0  0  0
    2.8762   -2.2142   10.8310 C   0  0  0  0  0  0  0  0  0  0  0  0
    2.3024   -1.3567   11.4821 O   0  0  0  0  0  0  0  0  0  0  0  0
    3.8791   -2.9663   11.3469 O   0  0  0  0  0  0  0  0  0  0  0  0
    4.3568   -4.1723   10.7556 C   0  0  3  0  0  0  0  0  0  0  0  0
    3.7338   -4.4594    9.4358 C   0  0  0  0  0  0  0  0  0  0  0  0
    3.4367   -5.6559    8.8764 C   0  0  0  0  0  0  0  0  0  0  0  0
    2.8608   -5.7140    7.6069 O   0  3  0  0  0  0  0  0  0  0  0  0
    3.7259   -6.9619    9.5202 C   0  0  0  0  0  0  0  0  0  0  0  0
    3.3881   -8.1948    8.8598 O   0  0  0  0  0  0  0  0  0  0  0  0
    4.7671   -7.8127    9.0217 O   0  0  0  0  0  0  0  0  0  0  0  0
    5.7375   -4.0247   10.4944 O   0  0  0  0  0  0  0  0  0  0  0  0
    1.5255   -3.8842    3.3886 C   0  0  0  0  0  0  0  0  0  0  0  0
    2.5098   -4.2631    2.5528 N   0  0  0  0  0  0  0  0  0  0  0  0
    2.2062   -4.6172    1.3376 N   0  0  0  0  0  0  0  0  0  0  0  0
    0.9599   -4.6728    0.9135 N   0  0  0  0  0  0  0  0  0  0  0  0
   -0.0650   -4.3314    1.7092 C   0  0  0  0  0  0  0  0  0  0  0  0
    0.1785   -3.8868    3.0071 C   0  0  0  0  0  0  0  0  0  0  0  0
   -0.9141   -3.5082    3.8268 C   0  0  0  0  0  0  0  0  0  0  0  0
   -2.2341   -3.6248    3.3681 C   0  0  0  0  0  0  0  0  0  0  0  0
   -3.3425   -3.2278    4.2355 C   0  0  0  0  0  0  0  0  0  0  0  0
   -3.1396   -2.8277    5.3712 O   0  0  0  0  0  0  0  0  0  0  0  0
   -4.7373   -3.3564    3.6749 C   0  0  0  0  0  0  0  0  0  0  0  0
   -5.6752   -2.7866    4.2129 O   0  0  0  0  0  0  0  0  0  0  0  0
   -4.8584   -4.2957    2.4962 C   0  0  1  0  0  0  0  0  0  0  0  0
   -3.7467   -4.3146    1.5871 O   0  0  0  0  0  0  0  0  0  0  0  0
   -2.4966   -4.1181    2.1047 C   0  0  0  0  0  0  0  0  0  0  0  0
   -1.4066   -4.4376    1.2829 C   0  0  0  0  0  0  0  0  0  0  0  0
   -1.6630   -4.9064    0.0116 O   0  0  0  0  0  0  0  0  0  0  0  0
   -5.1835   -5.6941    2.9528 C   0  0  1  0  0  0  0  0  0  0  0  0
   -4.2435   -6.3168    3.8575 O   0  0  0  0  0  0  0  0  0  0  0  0
   -6.5563   -5.9488    3.2685 O   0  0  0  0  0  0  0  0  0  0  0  0
   -6.0627   -6.5565    2.1829 C   0  0  0  0  0  0  0  0  0  0  0  0
   -6.4196   -6.5316    1.0171 O   0  0  0  0  0  0  0  0  0  0  0  0
    4.7416   -0.5921    4.4543 C   0  0  0  0  0  0  0  0  0  0  0  0
    5.1651   -1.7283    4.2968 O   0  0  0  0  0  0  0  0  0  0  0  0
    5.6793    0.5468    4.7403 C   0  0  0  0  0  0  0  0  0  0  0  0
    6.7749    0.5815    4.2052 O   0  0  0  0  0  0  0  0  0  0  0  0
    5.2431    1.6321    5.6972 C   0  0  0  0  0  0  0  0  0  0  0  0
    6.0397    2.4345    6.1551 O   0  0  0  0  0  0  0  0  0  0  0  0
  1  2  1  0  0  0  0
  2  3  2  0  0  0  0
  3  4  1  0  0  0  0
  3 52  1  0  0  0  0
  4  5  1  0  0  0  0
  5  6  1  1  0  0  0
  5 48  1  0  0  0  0
  6  7  1  0  0  0  0
  7  8  2  0  0  0  0
  7 12  1  0  0  0  0
  8  9  1  0  0  0  0
  8 26  1  0  0  0  0
  9 10  1  0  0  0  0
 10 11  2  0  0  0  0
 10 21  1  0  0  0  0
 11 12  1  0  0  0  0
 11 13  1  0  0  0  0
 13 14  1  0  0  0  0
 13 19  1  0  0  0  0
 14 15  1  0  0  0  0
 15 16  2  0  0  0  0
 15 17  1  0  0  0  0
 17 18  1  0  0  0  0
 18 19  1  0  0  0  0
 18 25  1  0  0  0  0
 19 20  2  0  0  0  0
 20 21  1  0  0  0  0
 20 22  1  0  0  0  0
 22 23  1  0  0  0  0
 22 24  1  0  0  0  0
 23 24  1  0  0  0  0
 26 27  2  0  0  0  0
 26 31  1  0  0  0  0
 27 28  1  0  0  0  0
 28 29  2  0  0  0  0
 29 30  1  0  0  0  0
 30 31  2  0  0  0  0
 30 41  1  0  0  0  0
 31 32  1  0  0  0  0
 32 33  2  0  0  0  0
 33 34  1  0  0  0  0
 33 40  1  0  0  0  0
 34 35  2  0  0  0  0
 34 36  1  0  0  0  0
 36 37  2  0  0  0  0
 38 36  1  1  0  0  0
 38 39  1  0  0  0  0
 38 43  1  0  0  0  0
 39 40  1  0  0  0  0
 40 41  2  0  0  0  0
 41 42  1  0  0  0  0
 43 44  1  1  0  0  0
 43 45  1  0  0  0  0
 43 46  1  0  0  0  0
 45 46  1  0  0  0  0
 46 47  2  0  0  0  0
 48 49  2  0  0  0  0
 48 50  1  0  0  0  0
 50 51  2  0  0  0  0
 50 52  1  0  0  0  0
 52 53  2  0  0  0  0
M  CHG  1  21   1
M  END
$$$$