
 OpenBabel11222022233D

 54 62  0  0  1  0  0  0  0  0999 V2000
    6.2484   -1.4804    4.5914 O   0  0  0  0  0  0  0  0  0  0  0  0
    5.3814   -0.4165    4.5623 C   0  0  0  0  0  0  0  0  0  0  0  0
    4.0661   -0.5661    4.3561 C   0  0  0  0  0  0  0  0  0  0  0  0
    3.5527   -1.8256    4.1224 O   0  0  0  0  0  0  0  0  0  0  0  0
    2.1624   -2.0351    4.0796 C   0  0  2  0  0  0  0  0  0  0  0  0
    1.8402   -3.1480    3.1739 O   0  0  0  0  0  0  0  0  0  0  0  0
    2.1434   -4.4766    3.4708 C   0  0  0  0  0  0  0  0  0  0  0  0
    1.5051   -5.5021    2.8396 C   0  0  0  0  0  0  0  0  0  0  0  0
    1.8244   -6.8331    3.1208 O   0  0  0  0  0  0  0  0  0  0  0  0
    2.7810   -7.1841    4.0586 C   0  0  0  0  0  0  0  0  0  0  0  0
    3.4713   -6.2458    4.7274 C   0  0  0  0  0  0  0  0  0  0  0  0
    3.2619   -4.7710    4.4650 C   0  0  0  0  0  0  0  0  0  0  0  0
    4.4659   -6.6262    5.7986 C   0  0  3  0  0  0  0  0  0  0  0  0
    3.9569   -6.1484    7.0320 O   0  0  0  0  0  0  0  0  0  0  0  0
    4.6682   -6.4270    8.1595 C   0  0  0  0  0  0  0  0  0  0  0  0
    4.4693   -5.8202    9.1987 O   0  0  0  0  0  0  0  0  0  0  0  0
    5.5896   -7.4148    8.0557 O   0  0  0  0  0  0  0  0  0  0  0  0
    5.5693   -8.4003    7.0309 C   0  0  3  0  0  0  0  0  0  0  0  0
    4.5847   -8.0982    5.9607 C   0  0  0  0  0  0  0  0  0  0  0  0
    3.8710   -8.9847    5.2331 C   0  0  0  0  0  0  0  0  0  0  0  0
    2.9655   -8.5307    4.2884 O   0  3  0  0  0  0  0  0  0  0  0  0
    3.9598  -10.4621    5.3605 C   0  0  0  0  0  0  0  0  0  0  0  0
    2.8133  -11.2296    5.7559 O   0  0  0  0  0  0  0  0  0  0  0  0
    3.2945  -11.3078    4.4020 O   0  0  0  0  0  0  0  0  0  0  0  0
    6.8205   -8.4107    6.3742 O   0  0  0  0  0  0  0  0  0  0  0  0
    0.4060   -5.3783    1.8009 C   0  0  0  0  0  0  0  0  0  0  0  0
   -0.4778   -4.2988    1.8691 C   0  0  0  0  0  0  0  0  0  0  0  0
   -1.4512   -4.1301    0.9677 N   0  3  0  0  0  0  0  0  0  0  0  0
   -2.2982   -3.0915    1.1042 F   0  0  0  0  0  0  0  0  0  0  0  0
   -1.6386   -4.9556   -0.0394 N   0  0  0  0  0  0  0  0  0  0  0  0
   -0.8945   -6.0531   -0.1455 C   0  0  0  0  0  0  0  0  0  0  0  0
    0.1412   -6.3444    0.7703 C   0  0  0  0  0  0  0  0  0  0  0  0
    0.7973   -7.5945    0.5874 C   0  0  0  0  0  0  0  0  0  0  0  0
    0.4408   -8.4999   -0.4239 C   0  0  0  0  0  0  0  0  0  0  0  0
    1.0740   -9.8214   -0.4821 C   0  0  0  0  0  0  0  0  0  0  0  0
    1.8028  -10.1752    0.4354 O   0  0  0  0  0  0  0  0  0  0  0  0
    0.8045  -10.6637   -1.7168 C   0  0  0  0  0  0  0  0  0  0  0  0
    1.3200  -11.7671   -1.8244 O   0  0  0  0  0  0  0  0  0  0  0  0
    0.0448   -9.9099   -2.8186 C   0  0  3  0  0  0  0  0  0  0  0  0
   -0.9591   -9.0266   -2.3042 O   0  0  0  0  0  0  0  0  0  0  0  0
   -0.5391   -8.1745   -1.3300 C   0  0  0  0  0  0  0  0  0  0  0  0
   -1.1898   -6.9524   -1.1781 C   0  0  0  0  0  0  0  0  0  0  0  0
   -2.1604   -6.6312   -2.0481 F   0  0  0  0  0  0  0  0  0  0  0  0
   -0.5002  -10.8811   -3.7809 N   0  0  0  0  0  0  0  0  0  0  0  0
    0.3027  -11.1174   -4.7432 C   0  0  0  0  0  0  0  0  0  0  0  0
    0.4103  -11.6986   -5.8911 O   0  0  0  0  0  0  0  0  0  0  0  0
    1.5228  -10.9318   -5.4565 C   0  0  0  0  0  0  0  0  0  0  0  0
    1.8814   -9.7966   -5.7388 O   0  0  0  0  0  0  0  0  0  0  0  0
    1.2793   -0.8839    3.5991 C   0  0  0  0  0  0  0  0  0  0  0  0
    0.1739   -1.0522    3.0882 O   0  0  0  0  0  0  0  0  0  0  0  0
    1.8347    0.4987    3.8458 C   0  0  0  0  0  0  0  0  0  0  0  0
    1.1161    1.4693    3.6605 O   0  0  0  0  0  0  0  0  0  0  0  0
    3.2635    0.6846    4.2867 C   0  0  0  0  0  0  0  0  0  0  0  0
    3.7100    1.7935    4.5312 O   0  0  0  0  0  0  0  0  0  0  0  0
  1  2  1  0  0  0  0
  2  3  2  0  0  0  0
  3  4  1  0  0  0  0
  3 53  1  0  0  0  0
  4  5  1  0  0  0  0
  5  6  1  6  0  0  0
  5 49  1  0  0  0  0
  6  7  1  0  0  0  0
  7  8  2  0  0  0  0
  7 12  1  0  0  0  0
  8  9  1  0  0  0  0
  8 26  1  0  0  0  0
  9 10  1  0  0  0  0
 10 11  2  0  0  0  0
 10 21  1  0  0  0  0
 11 12  1  0  0  0  0
 11 13  1  0  0  0  0
 13 14  1  0  0  0  0
 13 19  1  0  0  0  0
 14 15  1  0  0  0  0
 15 16  2  0  0  0  0
 15 17  1  0  0  0  0
 17 18  1  0  0  0  0
 18 19  1  0  0  0  0
 18 25  1  0  0  0  0
 19 20  2  0  0  0  0
 20 21  1  0  0  0  0
 20 22  1  0  0  0  0
 22 23  1  0  0  0  0
 22 24  1  0  0  0  0
 23 24  1  0  0  0  0
 26 27  2  0  0  0  0
 26 32  1  0  0  0  0
 27 28  1  0  0  0  0
 28 29  1  0  0  0  0
 28 30  2  0  0  0  0
 30 31  1  0  0  0  0
 31 32  2  0  0  0  0
 31 42  1  0  0  0  0
 32 33  1  0  0  0  0
 33 34  2  0  0  0  0
 34 35  1  0  0  0  0
 34 41  1  0  0  0  0
 35 36  2  0  0  0  0
 35 37  1  0  0  0  0
 37 38  2  0  0  0  0
 37 39  1  0  0  0  0
 39 40  1  0  0  0  0
 39 44  1  0  0  0  0
 40 41  1  0  0  0  0
 41 42  2  0  0  0  0
 42 43  1  0  0  0  0
 44 45  2  0  0  0  0
 45 46  1  0  0  0  0
 45 47  1  0  0  0  0
 46 47  1  0  0  0  0
 47 48  2  0  0  0  0
 49 50  2  0  0  0  0
 49 51  1  0  0  0  0
 51 52  2  0  0  0  0
 51 53  1  0  0  0  0
 53 54  2  0  0  0  0
M  CHG  2  21   1  28   1
M  END
$$$$