
 OpenBabel10262010223D

 93108  0  0  1  0  0  0  0  0999 V2000
    4.4926   -1.5557    4.9603 C   0  0  0  0  0  0  0  0  0  0  0  0
    3.9784   -0.1418    4.9352 C   0  0  0  0  0  0  0  0  0  0  0  0
    2.8834    0.2279    5.7011 C   0  0  0  0  0  0  0  0  0  0  0  0
    2.5034    1.5717    5.7601 C   0  0  0  0  0  0  0  0  0  0  0  0
    1.4506    1.8916    6.5223 F   0  0  0  0  0  0  0  0  0  0  0  0
    3.2258    2.5645    5.0767 C   0  0  0  0  0  0  0  0  0  0  0  0
    4.3215    2.2250    4.2496 C   0  0  0  0  0  0  0  0  0  0  0  0
    4.6624    0.8443    4.2017 C   0  0  0  0  0  0  0  0  0  0  0  0
    5.0448    3.2606    3.5414 C   0  0  0  0  0  0  0  0  0  0  0  0
    6.0299    3.0267    2.5559 C   0  0  0  0  0  0  0  0  0  0  0  0
    6.7056    4.0625    1.8738 C   0  0  0  0  0  0  0  0  0  0  0  0
    7.4654    3.6695    0.8429 F   0  0  0  0  0  0  0  0  0  0  0  0
    6.5868    5.4182    2.1993 C   0  0  0  0  0  0  0  0  0  0  0  0
    5.6003    5.6344    3.1996 C   0  0  0  0  0  0  0  0  0  0  0  0
    4.7693    4.6181    3.7953 C   0  0  0  0  0  0  0  0  0  0  0  0
    3.6576    4.9143    4.6124 C   0  0  0  0  0  0  0  0  0  0  0  0
    2.8924    3.9184    5.2131 C   0  0  0  0  0  0  0  0  0  0  0  0
    1.8451    4.2947    5.9588 F   0  0  0  0  0  0  0  0  0  0  0  0
    5.3938    6.9253    3.6435 O   0  0  0  0  0  0  0  0  0  0  0  0
    7.4047    6.5277    1.4970 C   0  0  0  0  0  0  0  0  0  0  0  0
    6.8266    7.8004    1.2072 C   0  0  0  0  0  0  0  0  0  0  0  0
    5.5325    8.1752    1.4681 O   0  0  0  0  0  0  0  0  0  0  0  0
    7.5118    8.8244    0.5516 C   0  0  0  0  0  0  0  0  0  0  0  0
    8.7923    8.6225    0.0876 C   0  0  0  0  0  0  0  0  0  0  0  0
    9.4322    7.4070    0.3039 C   0  0  0  0  0  0  0  0  0  0  0  0
    8.7974    6.3487    1.0259 C   0  0  0  0  0  0  0  0  0  0  0  0
    9.6489    5.2016    1.1983 C   0  0  0  0  0  0  0  0  0  0  0  0
   10.9511    5.0189    0.6335 C   0  0  0  0  0  0  0  0  0  0  0  0
   11.6903    3.7306    0.7986 C   0  0  0  0  0  0  0  0  0  0  0  0
   13.0869    3.6878    0.9412 C   0  0  0  0  0  0  0  0  0  0  0  0
   13.7749    2.4787    1.0751 C   0  0  0  0  0  0  0  0  0  0  0  0
   15.1091    2.5236    1.2033 F   0  0  0  0  0  0  0  0  0  0  0  0
   13.1035    1.2489    1.1126 C   0  0  0  0  0  0  0  0  0  0  0  0
   11.7032    1.2526    1.0063 C   0  0  0  0  0  0  0  0  0  0  0  0
   11.0321    2.4822    0.8276 C   0  0  0  0  0  0  0  0  0  0  0  0
    9.6973    2.4330    0.6825 F   0  0  0  0  0  0  0  0  0  0  0  0
   11.0037    0.0304    1.1134 C   0  0  0  0  0  0  0  0  0  0  0  0
   11.6779   -1.1835    1.3140 C   0  0  0  0  0  0  0  0  0  0  0  0
   13.0613   -1.1833    1.3722 C   0  0  0  0  0  0  0  0  0  0  0  0
   13.7645    0.0226    1.2680 C   0  0  0  0  0  0  0  0  0  0  0  0
   15.1047   -0.0030    1.3543 F   0  0  0  0  0  0  0  0  0  0  0  0
   13.7974   -2.3097    1.5382 O   0  0  0  0  0  0  0  0  0  0  0  0
   13.1912   -3.6051    1.6873 C   0  0  3  0  0  0  0  0  0  0  0  0
   11.7700   -3.6657    1.0699 C   0  0  3  0  0  0  0  0  0  0  0  0
   10.9411   -2.4625    1.5585 C   0  0  3  0  0  0  0  0  0  0  0  0
   10.6625   -2.5607    2.9615 O   0  0  0  0  0  0  0  0  0  0  0  0
   11.0892   -4.8794    1.4357 O   0  0  0  0  0  0  0  0  0  0  0  0
   10.1448   -5.3824    0.5793 C   0  0  0  0  0  0  0  0  0  0  0  0
    9.7969   -4.8405   -0.6583 C   0  0  0  0  0  0  0  0  0  0  0  0
    8.8263   -5.4518   -1.4537 C   0  0  0  0  0  0  0  0  0  0  0  0
    8.1943   -6.6125   -1.0196 C   0  0  0  0  0  0  0  0  0  0  0  0
    8.5385   -7.1680    0.2103 C   0  0  0  0  0  0  0  0  0  0  0  0
    9.5104   -6.5542    1.0067 C   0  0  0  0  0  0  0  0  0  0  0  0
   14.2062   -4.6229    1.0363 C   0  0  3  0  0  0  0  0  0  0  0  0
   13.7346   -6.0803    1.1696 C   0  0  0  0  0  0  0  0  0  0  0  0
   14.6517   -7.0502    0.4467 C   0  0  0  0  0  0  0  0  0  0  0  0
   16.0906   -6.8692    0.8117 C   0  0  0  0  0  0  0  0  0  0  0  0
   16.5799   -5.6680    1.3034 C   0  0  0  0  0  0  0  0  0  0  0  0
   15.6655   -4.4848    1.6157 C   0  0  3  0  0  0  0  0  0  0  0  0
   16.3677   -3.1589    1.2040 C   0  0  3  0  0  0  0  0  0  0  0  0
   16.0863   -2.8807   -0.1034 F   0  0  0  0  0  0  0  0  0  0  0  0
   17.8880   -3.1067    1.3609 C   0  0  0  0  0  0  0  0  0  0  0  0
   18.4089   -4.2540    2.2180 C   0  0  3  0  0  0  0  0  0  0  0  0
   17.9648   -5.5481    1.5553 C   0  0  0  0  0  0  0  0  0  0  0  0
   18.8809   -6.5651    1.1604 C   0  0  0  0  0  0  0  0  0  0  0  0
   18.3823   -7.8190    0.7098 C   0  0  0  0  0  0  0  0  0  0  0  0
   16.9780   -7.9255    0.5749 C   0  0  0  0  0  0  0  0  0  0  0  0
   19.2015   -9.0235    0.3514 C   0  0  0  0  0  0  0  0  0  0  0  0
   18.7522   -9.9363   -0.6349 C   0  0  0  0  0  0  0  0  0  0  0  0
   19.4138  -11.1499   -0.9172 C   0  0  0  0  0  0  0  0  0  0  0  0
   18.6551  -12.2707   -1.6294 C   0  0  3  0  0  0  0  0  0  0  0  0
   17.6010  -12.8017   -0.6262 C   0  0  0  0  0  0  0  0  0  0  0  0
   16.8519  -14.0350   -1.1074 C   0  0  0  0  0  0  0  0  0  0  0  0
   17.8153  -15.1606   -1.4914 C   0  0  3  0  0  0  0  0  0  0  0  0
   18.7562  -14.6586   -2.6118 C   0  0  3  0  0  0  0  0  0  0  0  0
   19.5699  -13.4045   -2.1691 C   0  0  3  0  0  0  0  0  0  0  0  0
   20.6843  -13.7409   -1.1578 C   0  0  0  0  0  0  0  0  0  0  0  0
   21.5405  -12.5211   -0.8060 C   0  0  3  0  0  0  0  0  0  0  0  0
   20.6774  -11.3697   -0.3620 C   0  0  0  0  0  0  0  0  0  0  0  0
   21.1447  -10.4910    0.6153 C   0  0  0  0  0  0  0  0  0  0  0  0
   20.3781   -9.3964    1.0123 C   0  0  0  0  0  0  0  0  0  0  0  0
   20.7955   -8.7519    2.1094 F   0  0  0  0  0  0  0  0  0  0  0  0
   22.4262  -12.0731   -1.9768 C   0  0  0  0  0  0  0  0  0  0  0  0
   19.6697  -15.7690   -3.1458 C   0  0  0  0  0  0  0  0  0  0  0  0
   17.0178  -16.4093   -1.8768 C   0  0  0  0  0  0  0  0  0  0  0  0
   20.3678   -6.2441    1.2108 C   0  0  3  0  0  0  0  0  0  0  0  0
   20.6814   -4.7520    1.2979 C   0  0  0  0  0  0  0  0  0  0  0  0
   19.9139   -4.1463    2.4556 C   0  0  0  0  0  0  0  0  0  0  0  0
   21.0539   -6.7132    0.1265 F   0  0  0  0  0  0  0  0  0  0  0  0
   11.4625    6.1031   -0.0762 C   0  0  0  0  0  0  0  0  0  0  0  0
   10.7257    7.2715   -0.2162 C   0  0  0  0  0  0  0  0  0  0  0  0
   11.2972    8.2878   -0.8914 F   0  0  0  0  0  0  0  0  0  0  0  0
   12.7090    6.0646   -0.6618 O   0  0  0  0  0  0  0  0  0  0  0  0
  1  2  1  0  0  0  0
  2  3  2  0  0  0  0
  2  8  1  0  0  0  0
  3  4  1  0  0  0  0
  4  5  1  0  0  0  0
  4  6  2  0  0  0  0
  6  7  1  0  0  0  0
  6 17  1  0  0  0  0
  7  8  2  0  0  0  0
  7  9  1  0  0  0  0
  9 10  2  0  0  0  0
  9 15  1  0  0  0  0
 10 11  1  0  0  0  0
 11 12  1  0  0  0  0
 11 13  2  0  0  0  0
 13 14  1  0  0  0  0
 13 20  1  0  0  0  0
 14 15  2  0  0  0  0
 14 19  1  0  0  0  0
 15 16  1  0  0  0  0
 16 17  2  0  0  0  0
 17 18  1  0  0  0  0
 20 21  2  0  0  0  0
 20 26  1  0  0  0  0
 21 22  1  0  0  0  0
 21 23  1  0  0  0  0
 23 24  2  0  0  0  0
 24 25  1  0  0  0  0
 25 26  2  0  0  0  0
 25 91  1  0  0  0  0
 26 27  1  0  0  0  0
 27 28  2  0  0  0  0
 28 29  1  0  0  0  0
 28 90  1  0  0  0  0
 29 30  2  0  0  0  0
 29 35  1  0  0  0  0
 30 31  1  0  0  0  0
 31 32  1  0  0  0  0
 31 33  2  0  0  0  0
 33 34  1  0  0  0  0
 33 40  1  0  0  0  0
 34 35  2  0  0  0  0
 34 37  1  0  0  0  0
 35 36  1  0  0  0  0
 37 38  2  0  0  0  0
 38 39  1  0  0  0  0
 38 45  1  0  0  0  0
 39 40  2  0  0  0  0
 39 42  1  0  0  0  0
 40 41  1  0  0  0  0
 42 43  1  0  0  0  0
 43 44  1  0  0  0  0
 43 54  1  0  0  0  0
 44 45  1  0  0  0  0
 44 47  1  0  0  0  0
 45 46  1  0  0  0  0
 47 48  1  0  0  0  0
 48 49  2  0  0  0  0
 48 53  1  0  0  0  0
 49 50  1  0  0  0  0
 50 51  2  0  0  0  0
 51 52  1  0  0  0  0
 52 53  2  0  0  0  0
 54 55  1  0  0  0  0
 54 59  1  0  0  0  0
 55 56  1  0  0  0  0
 56 57  1  0  0  0  0
 57 58  2  0  0  0  0
 57 67  1  0  0  0  0
 58 59  1  0  0  0  0
 58 64  1  0  0  0  0
 59 60  1  0  0  0  0
 60 61  1  0  0  0  0
 60 62  1  0  0  0  0
 62 63  1  0  0  0  0
 63 64  1  0  0  0  0
 63 88  1  0  0  0  0
 64 65  2  0  0  0  0
 65 66  1  0  0  0  0
 65 86  1  0  0  0  0
 66 67  2  0  0  0  0
 66 68  1  0  0  0  0
 68 69  2  0  0  0  0
 68 81  1  0  0  0  0
 69 70  1  0  0  0  0
 70 71  1  0  0  0  0
 70 79  2  0  0  0  0
 71 72  1  0  0  0  0
 71 76  1  0  0  0  0
 72 73  1  0  0  0  0
 73 74  1  0  0  0  0
 74 75  1  0  0  0  0
 74 85  1  0  0  0  0
 75 76  1  0  0  0  0
 75 84  1  0  0  0  0
 76 77  1  0  0  0  0
 77 78  1  0  0  0  0
 78 79  1  0  0  0  0
 78 83  1  0  0  0  0
 79 80  1  0  0  0  0
 80 81  2  0  0  0  0
 81 82  1  0  0  0  0
 86 87  1  0  0  0  0
 86 89  1  0  0  0  0
 87 88  1  0  0  0  0
 90 91  2  0  0  0  0
 90 93  1  0  0  0  0
 91 92  1  0  0  0  0
M  END
$$$$