
 OpenBabel09262011293D

 52 60  0  0  1  0  0  0  0  0999 V2000
    1.1967    0.3793    0.0163 O   0  0  0  0  0  0  0  0  0  0  0  0
    2.4186    0.3040    0.0112 C   0  0  0  0  0  0  0  0  0  0  0  0
    3.0040   -0.9441   -0.0795 N   0  0  0  0  0  0  0  0  0  0  0  0
    4.2871   -1.0302   -0.0043 C   0  0  0  0  0  0  0  0  0  0  0  0
    5.1565    0.1334    0.1693 C   0  0  0  0  0  0  0  0  0  0  0  0
    4.4300    1.4208    0.1739 C   0  0  0  0  0  0  0  0  0  0  0  0
    3.1419    1.4778    0.0858 N   0  0  0  0  0  0  0  0  0  0  0  0
    5.2442    2.6652    0.2375 C   0  0  0  0  0  0  0  0  0  0  0  0
    4.5691    3.9782    0.0510 C   0  0  0  0  0  0  0  0  0  0  0  0
    5.5518    5.0758   -0.3114 C   0  0  0  0  0  0  0  0  0  0  0  0
    6.8726    4.8844   -0.1025 C   0  0  0  0  0  0  0  0  0  0  0  0
    7.4018    3.6642    0.3240 O   0  0  0  0  0  0  0  0  0  0  0  0
    6.5760    2.5489    0.3501 C   0  0  0  0  0  0  0  0  0  0  0  0
    7.1805    1.3202    0.4464 N   0  0  0  0  0  0  0  0  0  0  0  0
    6.4991    0.1190    0.2944 C   0  0  0  0  0  0  0  0  0  0  0  0
    7.3362   -1.1026    0.2607 C   0  0  0  0  0  0  0  0  0  0  0  0
    7.8386   -1.6301   -0.9766 O   0  0  0  0  0  0  0  0  0  0  0  0
    8.7462   -1.0502   -0.0204 O   0  0  0  0  0  0  0  0  0  0  0  0
    7.9010    5.9265   -0.2970 C   0  0  0  0  0  0  0  0  0  0  0  0
    8.1321    6.6857    0.7971 N   0  0  0  0  0  0  0  0  0  0  0  0
    9.1366    7.5612    0.7023 C   0  0  0  0  0  0  0  0  0  0  0  0
    9.9499    7.7167   -0.3499 N   0  0  0  0  0  0  0  0  0  0  0  0
    9.7160    6.9498   -1.4173 C   0  0  0  0  0  0  0  0  0  0  0  0
    8.6588    6.0290   -1.4758 C   0  0  0  0  0  0  0  0  0  0  0  0
    8.4547    5.2834   -2.6632 C   0  0  0  0  0  0  0  0  0  0  0  0
    9.3387    5.4141   -3.7387 C   0  0  0  0  0  0  0  0  0  0  0  0
   10.4305    6.2640   -3.6448 C   0  0  0  0  0  0  0  0  0  0  0  0
   10.5823    7.0495   -2.5010 C   0  0  0  0  0  0  0  0  0  0  0  0
   11.3933    6.4044   -4.6046 O   0  0  0  0  0  0  0  0  0  0  0  0
   11.4903    5.3507   -5.5695 C   0  0  2  0  0  0  0  0  0  0  0  0
   10.1716    4.7915   -6.0510 C   0  0  0  0  0  0  0  0  0  0  0  0
    9.9615    4.4138   -7.1954 O   0  0  0  0  0  0  0  0  0  0  0  0
    9.1148    4.6619   -4.9777 C   0  0  0  0  0  0  0  0  0  0  0  0
    8.1173    3.9768   -5.1424 O   0  0  0  0  0  0  0  0  0  0  0  0
   12.3865    4.2565   -5.0770 C   0  0  1  0  0  0  0  0  0  0  0  0
   11.9828    3.5792   -3.8612 O   0  0  0  0  0  0  0  0  0  0  0  0
   12.9053    3.4116   -6.1079 O   0  0  0  0  0  0  0  0  0  0  0  0
   13.8077    4.1416   -5.4198 C   0  0  0  0  0  0  0  0  0  0  0  0
   14.7410    3.7756   -4.7509 O   0  0  0  0  0  0  0  0  0  0  0  0
    5.0780    6.2699   -0.8415 O   0  0  0  0  0  0  0  0  0  0  0  0
    3.8976    6.1697   -1.6416 C   0  0  1  0  0  0  0  0  0  0  0  0
    2.7356    6.3284   -0.8290 O   0  0  0  0  0  0  0  0  0  0  0  0
    1.5497    6.0754   -1.5024 C   0  0  0  0  0  0  0  0  0  0  0  0
    0.4993    5.5115   -0.8774 C   0  0  0  0  0  0  0  0  0  0  0  0
    0.5854    5.1776    0.4500 O   0  0  0  0  0  0  0  0  0  0  0  0
   -0.7087    5.2295   -1.4635 O   0  0  0  0  0  0  0  0  0  0  0  0
    1.4230    6.4805   -2.9252 C   0  0  0  0  0  0  0  0  0  0  0  0
    0.5081    6.1262   -3.6515 O   0  0  0  0  0  0  0  0  0  0  0  0
    2.5637    7.3527   -3.4092 C   0  0  0  0  0  0  0  0  0  0  0  0
    2.3772    8.1739   -4.2916 O   0  0  0  0  0  0  0  0  0  0  0  0
    3.9242    7.1843   -2.7720 C   0  0  0  0  0  0  0  0  0  0  0  0
    4.9186    7.7254   -3.2319 O   0  0  0  0  0  0  0  0  0  0  0  0
  1  2  2  0  0  0  0
  2  3  1  0  0  0  0
  2  7  1  0  0  0  0
  3  4  2  0  0  0  0
  4  5  1  0  0  0  0
  5  6  1  0  0  0  0
  5 15  2  0  0  0  0
  6  7  2  0  0  0  0
  6  8  1  0  0  0  0
  8  9  1  0  0  0  0
  8 13  2  0  0  0  0
  9 10  1  0  0  0  0
 10 11  2  0  0  0  0
 10 40  1  0  0  0  0
 11 12  1  0  0  0  0
 11 19  1  0  0  0  0
 12 13  1  0  0  0  0
 13 14  1  0  0  0  0
 14 15  1  0  0  0  0
 15 16  1  0  0  0  0
 16 17  1  0  0  0  0
 16 18  1  0  0  0  0
 17 18  1  0  0  0  0
 19 20  2  0  0  0  0
 19 24  1  0  0  0  0
 20 21  1  0  0  0  0
 21 22  2  0  0  0  0
 22 23  1  0  0  0  0
 23 24  2  0  0  0  0
 23 28  1  0  0  0  0
 24 25  1  0  0  0  0
 25 26  2  0  0  0  0
 26 27  1  0  0  0  0
 26 33  1  0  0  0  0
 27 28  2  0  0  0  0
 27 29  1  0  0  0  0
 30 29  1  1  0  0  0
 30 31  1  0  0  0  0
 30 35  1  0  0  0  0
 31 32  2  0  0  0  0
 31 33  1  0  0  0  0
 33 34  2  0  0  0  0
 35 36  1  1  0  0  0
 35 37  1  0  0  0  0
 35 38  1  0  0  0  0
 37 38  1  0  0  0  0
 38 39  2  0  0  0  0
 41 40  1  1  0  0  0
 41 42  1  0  0  0  0
 41 51  1  0  0  0  0
 42 43  1  0  0  0  0
 43 44  2  0  0  0  0
 43 47  1  0  0  0  0
 44 45  1  0  0  0  0
 44 46  1  0  0  0  0
 47 48  2  0  0  0  0
 47 49  1  0  0  0  0
 49 50  2  0  0  0  0
 49 51  1  0  0  0  0
 51 52  2  0  0  0  0
M  END
$$$$