
 OpenBabel11212023383D

 54 62  0  0  1  0  0  0  0  0999 V2000
    4.4513    6.7822    4.7323 O   0  0  0  0  0  0  0  0  0  0  0  0
    4.8161    6.3629    3.4749 C   0  0  0  0  0  0  0  0  0  0  0  0
    4.7638    5.0846    3.0822 C   0  0  0  0  0  0  0  0  0  0  0  0
    4.3771    4.0784    3.9547 O   0  0  0  0  0  0  0  0  0  0  0  0
    3.3532    3.2769    3.3776 C   0  0  2  0  0  0  0  0  0  0  0  0
    2.8303    2.2833    4.2858 O   0  0  0  0  0  0  0  0  0  0  0  0
    2.6281    2.5748    5.6164 C   0  0  0  0  0  0  0  0  0  0  0  0
    2.7933    1.6193    6.5605 C   0  0  0  0  0  0  0  0  0  0  0  0
    2.6133    1.9265    7.9176 O   0  0  0  0  0  0  0  0  0  0  0  0
    2.6150    3.2557    8.3395 C   0  0  0  0  0  0  0  0  0  0  0  0
    2.3636    4.2470    7.4629 C   0  0  0  0  0  0  0  0  0  0  0  0
    2.1515    3.9609    6.0011 C   0  0  0  0  0  0  0  0  0  0  0  0
    2.3301    5.6918    7.8839 C   0  0  3  0  0  0  0  0  0  0  0  0
    1.0279    6.1855    7.6639 O   0  0  0  0  0  0  0  0  0  0  0  0
    0.7573    7.4476    8.1053 C   0  0  0  0  0  0  0  0  0  0  0  0
   -0.2182    8.0531    7.6894 O   0  0  0  0  0  0  0  0  0  0  0  0
    1.6190    7.9875    9.0094 O   0  0  0  0  0  0  0  0  0  0  0  0
    2.4727    7.2318    9.7202 C   0  0  0  0  0  0  0  0  0  0  0  0
    3.1742    7.6697   10.6198 O   0  0  0  0  0  0  0  0  0  0  0  0
    2.5898    5.8340    9.3222 C   0  0  0  0  0  0  0  0  0  0  0  0
    2.8812    4.8136   10.1573 C   0  0  0  0  0  0  0  0  0  0  0  0
    2.8828    3.5108    9.6719 O   0  3  0  0  0  0  0  0  0  0  0  0
    3.1389    4.9496   11.6124 C   0  0  0  0  0  0  0  0  0  0  0  0
    2.0790    4.7742   12.5601 O   0  0  0  0  0  0  0  0  0  0  0  0
    3.1173    3.7821   12.4554 O   0  0  0  0  0  0  0  0  0  0  0  0
    3.1601    0.1786    6.2817 C   0  0  0  0  0  0  0  0  0  0  0  0
    2.7367   -0.4390    5.1009 C   0  0  0  0  0  0  0  0  0  0  0  0
    3.0249   -1.7191    4.8373 N   0  3  0  0  0  0  0  0  0  0  0  0
    2.6084   -2.2555    3.6732 F   0  0  0  0  0  0  0  0  0  0  0  0
    3.6816   -2.4913    5.6824 N   0  0  0  0  0  0  0  0  0  0  0  0
    4.0963   -1.9960    6.8503 C   0  0  0  0  0  0  0  0  0  0  0  0
    3.8719   -0.6471    7.1944 C   0  0  0  0  0  0  0  0  0  0  0  0
    4.3567   -0.2168    8.4462 C   0  0  0  0  0  0  0  0  0  0  0  0
    4.9256   -1.0931    9.3704 C   0  0  0  0  0  0  0  0  0  0  0  0
    5.1500   -0.6191   10.7380 C   0  0  0  0  0  0  0  0  0  0  0  0
    4.7730    0.5018   11.0608 O   0  0  0  0  0  0  0  0  0  0  0  0
    5.7496   -1.6285   11.6938 C   0  0  0  0  0  0  0  0  0  0  0  0
    5.6124   -1.4924   12.8983 O   0  0  0  0  0  0  0  0  0  0  0  0
    6.5010   -2.7494   11.0009 C   0  0  1  0  0  0  0  0  0  0  0  0
    5.8136   -3.2879    9.8518 O   0  0  0  0  0  0  0  0  0  0  0  0
    5.1864   -2.3995    9.0261 C   0  0  0  0  0  0  0  0  0  0  0  0
    4.7638   -2.8302    7.7641 C   0  0  0  0  0  0  0  0  0  0  0  0
    4.9828   -4.1082    7.4166 F   0  0  0  0  0  0  0  0  0  0  0  0
    7.8746   -2.2899   10.6282 C   0  0  1  0  0  0  0  0  0  0  0  0
    7.9538   -1.1182    9.7681 O   0  0  0  0  0  0  0  0  0  0  0  0
    8.8268   -2.3433   11.6771 O   0  0  0  0  0  0  0  0  0  0  0  0
    9.0627   -3.1484   10.6236 C   0  0  0  0  0  0  0  0  0  0  0  0
    9.9810   -3.1341    9.8309 O   0  0  0  0  0  0  0  0  0  0  0  0
    3.9469    2.4754    2.2337 C   0  0  0  0  0  0  0  0  0  0  0  0
    3.8108    1.2628    2.0965 O   0  0  0  0  0  0  0  0  0  0  0  0
    4.7770    3.3167    1.2866 C   0  0  0  0  0  0  0  0  0  0  0  0
    5.1663    2.8325    0.2364 O   0  0  0  0  0  0  0  0  0  0  0  0
    5.1046    4.7521    1.6664 C   0  0  0  0  0  0  0  0  0  0  0  0
    5.5507    5.5543    0.8671 O   0  0  0  0  0  0  0  0  0  0  0  0
  1  2  1  0  0  0  0
  2  3  2  0  0  0  0
  3  4  1  0  0  0  0
  3 53  1  0  0  0  0
  4  5  1  0  0  0  0
  5  6  1  1  0  0  0
  5 49  1  0  0  0  0
  6  7  1  0  0  0  0
  7  8  2  0  0  0  0
  7 12  1  0  0  0  0
  8  9  1  0  0  0  0
  8 26  1  0  0  0  0
  9 10  1  0  0  0  0
 10 11  2  0  0  0  0
 10 22  1  0  0  0  0
 11 12  1  0  0  0  0
 11 13  1  0  0  0  0
 13 14  1  0  0  0  0
 13 20  1  0  0  0  0
 14 15  1  0  0  0  0
 15 16  2  0  0  0  0
 15 17  1  0  0  0  0
 17 18  1  0  0  0  0
 18 19  2  0  0  0  0
 18 20  1  0  0  0  0
 20 21  2  0  0  0  0
 21 22  1  0  0  0  0
 21 23  1  0  0  0  0
 23 24  1  0  0  0  0
 23 25  1  0  0  0  0
 24 25  1  0  0  0  0
 26 27  2  0  0  0  0
 26 32  1  0  0  0  0
 27 28  1  0  0  0  0
 28 29  1  0  0  0  0
 28 30  2  0  0  0  0
 30 31  1  0  0  0  0
 31 32  2  0  0  0  0
 31 42  1  0  0  0  0
 32 33  1  0  0  0  0
 33 34  2  0  0  0  0
 34 35  1  0  0  0  0
 34 41  1  0  0  0  0
 35 36  2  0  0  0  0
 35 37  1  0  0  0  0
 37 38  2  0  0  0  0
 39 37  1  6  0  0  0
 39 40  1  0  0  0  0
 39 44  1  0  0  0  0
 40 41  1  0  0  0  0
 41 42  2  0  0  0  0
 42 43  1  0  0  0  0
 44 45  1  6  0  0  0
 44 46  1  0  0  0  0
 44 47  1  0  0  0  0
 46 47  1  0  0  0  0
 47 48  2  0  0  0  0
 49 50  2  0  0  0  0
 49 51  1  0  0  0  0
 51 52  2  0  0  0  0
 51 53  1  0  0  0  0
 53 54  2  0  0  0  0
M  CHG  2  22   1  28   1
M  END
$$$$