
 OpenBabel11212020483D

 54 62  0  0  1  0  0  0  0  0999 V2000
    6.5897    3.2820    3.5569 O   0  0  0  0  0  0  0  0  0  0  0  0
    5.8560    3.8794    2.5640 C   0  0  0  0  0  0  0  0  0  0  0  0
    4.5390    3.6832    2.4195 C   0  0  0  0  0  0  0  0  0  0  0  0
    3.8749    2.8084    3.2540 O   0  0  0  0  0  0  0  0  0  0  0  0
    2.4726    2.9631    3.4029 C   0  0  2  0  0  0  0  0  0  0  0  0
    1.9335    1.7991    4.0547 O   0  0  0  0  0  0  0  0  0  0  0  0
    2.3130    1.5611    5.3680 C   0  0  0  0  0  0  0  0  0  0  0  0
    2.4277    0.3043    5.8478 C   0  0  0  0  0  0  0  0  0  0  0  0
    2.7367    0.0173    7.1749 O   0  0  0  0  0  0  0  0  0  0  0  0
    2.9490    1.0615    8.0669 C   0  0  0  0  0  0  0  0  0  0  0  0
    2.8442    2.3480    7.6860 C   0  0  0  0  0  0  0  0  0  0  0  0
    2.4986    2.7391    6.2810 C   0  0  0  0  0  0  0  0  0  0  0  0
    3.1055    3.4829    8.6307 C   0  0  3  0  0  0  0  0  0  0  0  0
    1.8947    4.1909    8.8175 O   0  0  0  0  0  0  0  0  0  0  0  0
    1.9242    5.2532    9.6667 C   0  0  0  0  0  0  0  0  0  0  0  0
    1.0513    6.1053    9.6574 O   0  0  0  0  0  0  0  0  0  0  0  0
    2.9824    5.3078   10.5131 O   0  0  0  0  0  0  0  0  0  0  0  0
    3.7761    4.1739   10.8449 C   0  0  3  0  0  0  0  0  0  0  0  0
    3.5136    3.0055    9.9687 C   0  0  0  0  0  0  0  0  0  0  0  0
    3.6009    1.6958   10.2917 C   0  0  0  0  0  0  0  0  0  0  0  0
    3.2860    0.7229    9.3547 O   0  3  0  0  0  0  0  0  0  0  0  0
    4.0189    1.2113   11.6261 C   0  0  0  0  0  0  0  0  0  0  0  0
    3.0574    0.9734   12.6609 O   0  0  0  0  0  0  0  0  0  0  0  0
    3.7361   -0.1359   12.0396 O   0  0  0  0  0  0  0  0  0  0  0  0
    5.1355    4.4966   10.6234 O   0  0  0  0  0  0  0  0  0  0  0  0
    2.2389   -0.8873    4.9977 C   0  0  0  0  0  0  0  0  0  0  0  0
    0.9865   -1.3946    5.0236 N   0  0  0  0  0  0  0  0  0  0  0  0
    0.7249   -2.4135    4.1805 C   0  0  0  0  0  0  0  0  0  0  0  0
   -0.5233   -2.9000    4.1717 F   0  0  0  0  0  0  0  0  0  0  0  0
    1.6586   -2.9849    3.3375 C   0  0  0  0  0  0  0  0  0  0  0  0
    2.9671   -2.4903    3.3466 C   0  0  0  0  0  0  0  0  0  0  0  0
    3.2860   -1.4184    4.2075 C   0  0  0  0  0  0  0  0  0  0  0  0
    4.6181   -0.9494    4.2202 C   0  0  0  0  0  0  0  0  0  0  0  0
    5.5863   -1.4969    3.3680 C   0  0  0  0  0  0  0  0  0  0  0  0
    6.9520   -0.9764    3.4067 C   0  0  0  0  0  0  0  0  0  0  0  0
    7.3094   -0.1879    4.2691 O   0  0  0  0  0  0  0  0  0  0  0  0
    7.8976   -1.4258    2.3233 C   0  0  0  0  0  0  0  0  0  0  0  0
    9.0382   -0.9805    2.2722 O   0  0  0  0  0  0  0  0  0  0  0  0
    7.2858   -2.2729    1.2313 C   0  0  1  0  0  0  0  0  0  0  0  0
    6.1435   -3.0557    1.5906 O   0  0  0  0  0  0  0  0  0  0  0  0
    5.2662   -2.5152    2.4863 C   0  0  0  0  0  0  0  0  0  0  0  0
    3.9644   -3.0219    2.5046 C   0  0  0  0  0  0  0  0  0  0  0  0
    3.6502   -4.0311    1.6759 F   0  0  0  0  0  0  0  0  0  0  0  0
    7.0705   -1.4143    0.0054 C   0  0  1  0  0  0  0  0  0  0  0  0
    8.2502   -0.8210   -0.5864 O   0  0  0  0  0  0  0  0  0  0  0  0
    6.0800   -1.8864   -0.9244 O   0  0  0  0  0  0  0  0  0  0  0  0
    5.8190   -0.7430   -0.2848 C   0  0  0  0  0  0  0  0  0  0  0  0
    4.9140   -0.3860    0.4495 O   0  0  0  0  0  0  0  0  0  0  0  0
    1.7176    3.1801    2.1025 C   0  0  0  0  0  0  0  0  0  0  0  0
    0.6549    2.6695    1.7857 O   0  0  0  0  0  0  0  0  0  0  0  0
    2.3702    4.2179    1.2363 C   0  0  0  0  0  0  0  0  0  0  0  0
    1.6835    4.9632    0.5557 O   0  0  0  0  0  0  0  0  0  0  0  0
    3.8670    4.3981    1.2982 C   0  0  0  0  0  0  0  0  0  0  0  0
    4.4575    5.0991    0.4923 O   0  0  0  0  0  0  0  0  0  0  0  0
  1  2  1  0  0  0  0
  2  3  2  0  0  0  0
  3  4  1  0  0  0  0
  3 53  1  0  0  0  0
  4  5  1  0  0  0  0
  5  6  1  6  0  0  0
  5 49  1  0  0  0  0
  6  7  1  0  0  0  0
  7  8  2  0  0  0  0
  7 12  1  0  0  0  0
  8  9  1  0  0  0  0
  8 26  1  0  0  0  0
  9 10  1  0  0  0  0
 10 11  2  0  0  0  0
 10 21  1  0  0  0  0
 11 12  1  0  0  0  0
 11 13  1  0  0  0  0
 13 14  1  0  0  0  0
 13 19  1  0  0  0  0
 14 15  1  0  0  0  0
 15 16  2  0  0  0  0
 15 17  1  0  0  0  0
 17 18  1  0  0  0  0
 18 19  1  0  0  0  0
 18 25  1  0  0  0  0
 19 20  2  0  0  0  0
 20 21  1  0  0  0  0
 20 22  1  0  0  0  0
 22 23  1  0  0  0  0
 22 24  1  0  0  0  0
 23 24  1  0  0  0  0
 26 27  2  0  0  0  0
 26 32  1  0  0  0  0
 27 28  1  0  0  0  0
 28 29  1  0  0  0  0
 28 30  2  0  0  0  0
 30 31  1  0  0  0  0
 31 32  2  0  0  0  0
 31 42  1  0  0  0  0
 32 33  1  0  0  0  0
 33 34  2  0  0  0  0
 34 35  1  0  0  0  0
 34 41  1  0  0  0  0
 35 36  2  0  0  0  0
 35 37  1  0  0  0  0
 37 38  2  0  0  0  0
 39 37  1  1  0  0  0
 39 40  1  0  0  0  0
 39 44  1  0  0  0  0
 40 41  1  0  0  0  0
 41 42  2  0  0  0  0
 42 43  1  0  0  0  0
 44 45  1  6  0  0  0
 44 46  1  0  0  0  0
 44 47  1  0  0  0  0
 46 47  1  0  0  0  0
 47 48  2  0  0  0  0
 49 50  2  0  0  0  0
 49 51  1  0  0  0  0
 51 52  2  0  0  0  0
 51 53  1  0  0  0  0
 53 54  2  0  0  0  0
M  CHG  1  21   1
M  END
$$$$