
 OpenBabel11242000593D

 53 62  0  0  1  0  0  0  0  0999 V2000
   -4.1212  -16.2994    8.7611 O   0  0  0  0  0  0  0  0  0  0  0  0
   -4.4004  -15.9274   10.0515 C   0  0  0  0  0  0  0  0  0  0  0  0
   -4.7638  -14.6799   10.3698 C   0  0  0  0  0  0  0  0  0  0  0  0
   -4.8328  -13.7114    9.3789 O   0  0  0  0  0  0  0  0  0  0  0  0
   -5.7360  -12.6359    9.6194 C   0  0  2  0  0  0  0  0  0  0  0  0
   -5.6993  -11.6987    8.5340 O   0  0  0  0  0  0  0  0  0  0  0  0
   -6.1571  -12.1626    7.3058 C   0  0  0  0  0  0  0  0  0  0  0  0
   -5.6634  -11.6565    6.1584 C   0  0  0  0  0  0  0  0  0  0  0  0
   -6.1335  -12.0021    4.9011 O   0  0  0  0  0  0  0  0  0  0  0  0
   -7.1189  -12.9676    4.7907 C   0  0  0  0  0  0  0  0  0  0  0  0
   -7.6571  -13.5677    5.8657 C   0  0  0  0  0  0  0  0  0  0  0  0
   -7.2567  -13.2029    7.2618 C   0  0  0  0  0  0  0  0  0  0  0  0
   -8.6370  -14.7015    5.6890 C   0  0  3  0  0  0  0  0  0  0  0  0
   -9.8819  -14.3410    6.3505 N   0  0  0  0  0  0  0  0  0  0  0  0
  -10.9103  -15.2195    6.2475 C   0  0  0  0  0  0  0  0  0  0  0  0
  -11.7323  -15.4351    7.2077 N   0  0  0  0  0  0  0  0  0  0  0  0
  -11.0711  -15.8033    5.0418 N   0  0  0  0  0  0  0  0  0  0  0  0
   -9.9792  -16.1164    4.1516 C   0  0  0  0  0  0  0  0  0  0  0  0
   -8.9722  -15.0153    4.2550 C   0  0  0  0  0  0  0  0  0  0  0  0
   -8.4209  -14.3251    3.2315 C   0  0  0  0  0  0  0  0  0  0  0  0
   -7.5192  -13.3086    3.5264 N   0  0  0  0  0  0  0  0  0  0  0  0
   -8.7130  -14.5682    1.8081 C   0  0  3  0  0  0  0  0  0  0  0  0
   -7.9179  -15.5139    1.1098 N   0  0  0  0  0  0  0  0  0  0  0  0
   -7.6962  -14.3192    0.8419 N   0  0  0  0  0  0  0  0  0  0  0  0
   -4.5483  -10.7031    6.1093 C   0  0  0  0  0  0  0  0  0  0  0  0
   -4.8324   -9.3488    6.1693 C   0  0  0  0  0  0  0  0  0  0  0  0
   -3.8505   -8.4507    6.0655 N   0  3  0  0  0  0  0  0  0  0  0  0
   -4.1588   -7.1405    6.1029 F   0  0  0  0  0  0  0  0  0  0  0  0
   -2.5845   -8.7917    5.8972 N   0  0  0  0  0  0  0  0  0  0  0  0
   -2.2397  -10.0868    5.8457 C   0  0  0  0  0  0  0  0  0  0  0  0
   -3.2074  -11.1038    5.9557 C   0  0  0  0  0  0  0  0  0  0  0  0
   -2.7987  -12.4577    5.9017 C   0  0  0  0  0  0  0  0  0  0  0  0
   -1.4519  -12.7968    5.7554 C   0  0  0  0  0  0  0  0  0  0  0  0
   -0.4918  -11.7981    5.6714 C   0  0  0  0  0  0  0  0  0  0  0  0
   -0.8845  -10.4426    5.6599 C   0  0  0  0  0  0  0  0  0  0  0  0
    0.1204   -9.4452    5.6791 N   0  0  0  0  0  0  0  0  0  0  0  0
    0.8563  -12.0660    5.5524 O   0  0  0  0  0  0  0  0  0  0  0  0
    1.2512  -13.4107    5.9178 C   0  0  1  0  0  0  0  0  0  0  0  0
    0.4073  -14.4885    5.3907 C   0  0  0  0  0  0  0  0  0  0  0  0
    0.8039  -15.4896    4.8235 O   0  0  0  0  0  0  0  0  0  0  0  0
   -1.0492  -14.2105    5.6792 C   0  0  0  0  0  0  0  0  0  0  0  0
   -1.8457  -15.1154    5.8622 O   0  0  0  0  0  0  0  0  0  0  0  0
    2.6338  -13.6579    5.9615 O   0  0  0  0  0  0  0  0  0  0  0  0
    1.9174  -13.6681    7.2339 C   0  0  1  0  0  0  0  0  0  0  0  0
    1.8437  -12.4097    8.0004 O   0  0  0  0  0  0  0  0  0  0  0  0
    2.8564  -13.2171    8.2250 C   0  0  0  0  0  0  0  0  0  0  0  0
    3.2753  -13.7119    9.2513 O   0  0  0  0  0  0  0  0  0  0  0  0
   -5.3174  -11.9503   10.9082 C   0  0  0  0  0  0  0  0  0  0  0  0
   -4.9326  -10.7984   11.0269 O   0  0  0  0  0  0  0  0  0  0  0  0
   -5.3658  -12.9159   12.0494 C   0  0  0  0  0  0  0  0  0  0  0  0
   -6.0298  -12.4183   13.4885 S   0  0  0  0  0  0  0  0  0  0  0  0
   -5.0228  -14.3630   11.8123 C   0  0  0  0  0  0  0  0  0  0  0  0
   -4.9693  -15.1880   12.7063 O   0  0  0  0  0  0  0  0  0  0  0  0
  1  2  1  0  0  0  0
  2  3  2  0  0  0  0
  3  4  1  0  0  0  0
  3 52  1  0  0  0  0
  4  5  1  0  0  0  0
  5  6  1  6  0  0  0
  5 48  1  0  0  0  0
  6  7  1  0  0  0  0
  7  8  2  0  0  0  0
  7 12  1  0  0  0  0
  8  9  1  0  0  0  0
  8 25  1  0  0  0  0
  9 10  1  0  0  0  0
 10 11  2  0  0  0  0
 10 21  1  0  0  0  0
 11 12  1  0  0  0  0
 11 13  1  0  0  0  0
 13 14  1  0  0  0  0
 13 19  1  0  0  0  0
 14 15  1  0  0  0  0
 15 16  2  0  0  0  0
 15 17  1  0  0  0  0
 17 18  1  0  0  0  0
 18 19  1  0  0  0  0
 19 20  2  0  0  0  0
 20 21  1  0  0  0  0
 20 22  1  0  0  0  0
 22 23  1  0  0  0  0
 22 24  1  0  0  0  0
 23 24  2  0  0  0  0
 25 26  2  0  0  0  0
 25 31  1  0  0  0  0
 26 27  1  0  0  0  0
 27 28  1  0  0  0  0
 27 29  2  0  0  0  0
 29 30  1  0  0  0  0
 30 31  2  0  0  0  0
 30 35  1  0  0  0  0
 31 32  1  0  0  0  0
 32 33  2  0  0  0  0
 33 34  1  0  0  0  0
 33 41  1  0  0  0  0
 34 35  2  0  0  0  0
 34 37  1  0  0  0  0
 35 36  1  0  0  0  0
 38 37  1  6  0  0  0
 38 39  1  0  0  0  0
 38 43  1  0  0  0  0
 38 44  1  0  0  0  0
 39 40  2  0  0  0  0
 39 41  1  0  0  0  0
 41 42  2  0  0  0  0
 44 43  1  6  0  0  0
 44 45  1  0  0  0  0
 44 46  1  0  0  0  0
 45 46  1  0  0  0  0
 46 47  2  0  0  0  0
 48 49  2  0  0  0  0
 48 50  1  0  0  0  0
 50 51  2  0  0  0  0
 50 52  1  0  0  0  0
 52 53  2  0  0  0  0
M  CHG  1  27   1
M  END
$$$$