
 OpenBabel11252017073D

 53 60  0  0  1  0  0  0  0  0999 V2000
    6.9594   -1.3932    5.9213 O   0  0  0  0  0  0  0  0  0  0  0  0
    6.8344   -0.2106    5.2346 C   0  0  0  0  0  0  0  0  0  0  0  0
    5.7767    0.0765    4.4659 C   0  0  0  0  0  0  0  0  0  0  0  0
    4.7670   -0.8512    4.2721 O   0  0  0  0  0  0  0  0  0  0  0  0
    3.4630   -0.2901    4.3401 C   0  0  2  0  0  0  0  0  0  0  0  0
    2.4492   -1.3147    4.1595 O   0  0  0  0  0  0  0  0  0  0  0  0
    2.4402   -2.3858    5.0430 C   0  0  0  0  0  0  0  0  0  0  0  0
    2.0059   -3.6227    4.6801 C   0  0  0  0  0  0  0  0  0  0  0  0
    2.1043   -4.7118    5.5767 O   0  0  0  0  0  0  0  0  0  0  0  0
    2.7063   -4.5470    6.8396 C   0  0  0  0  0  0  0  0  0  0  0  0
    3.0220   -3.3193    7.2922 C   0  0  0  0  0  0  0  0  0  0  0  0
    2.8456   -2.0953    6.4649 C   0  0  0  0  0  0  0  0  0  0  0  0
    3.6111   -3.0703    8.6552 C   0  0  3  0  0  0  0  0  0  0  0  0
    2.6530   -2.3352    9.3944 O   0  0  0  0  0  0  0  0  0  0  0  0
    2.9375   -2.0525   10.6941 C   0  0  0  0  0  0  0  0  0  0  0  0
    2.3175   -1.1980   11.3047 O   0  0  0  0  0  0  0  0  0  0  0  0
    3.9353   -2.7747   11.2595 O   0  0  0  0  0  0  0  0  0  0  0  0
    4.4182   -4.0053   10.7302 C   0  0  3  0  0  0  0  0  0  0  0  0
    3.8379   -4.3216    9.4005 C   0  0  0  0  0  0  0  0  0  0  0  0
    3.5238   -5.5237    8.8828 C   0  0  0  0  0  0  0  0  0  0  0  0
    2.9518   -5.6581    7.6242 O   0  3  0  0  0  0  0  0  0  0  0  0
    3.7556   -6.8337    9.5769 C   0  0  0  0  0  0  0  0  0  0  0  0
    3.2601   -7.8335    8.6823 O   0  0  0  0  0  0  0  0  0  0  0  0
    5.8108   -3.8916   10.5153 O   0  0  0  0  0  0  0  0  0  0  0  0
    1.3388   -3.9236    3.3456 C   0  0  0  0  0  0  0  0  0  0  0  0
    0.6039   -2.8952    2.7334 C   0  0  0  0  0  0  0  0  0  0  0  0
   -0.0176   -3.0680    1.5624 N   0  3  0  0  0  0  0  0  0  0  0  0
   -0.6979   -2.0401    1.0175 F   0  0  0  0  0  0  0  0  0  0  0  0
   -0.0113   -4.2134    0.9221 N   0  0  0  0  0  0  0  0  0  0  0  0
    0.6189   -5.2605    1.4449 C   0  0  0  0  0  0  0  0  0  0  0  0
    1.3203   -5.1872    2.6727 C   0  0  0  0  0  0  0  0  0  0  0  0
    1.9298   -6.3923    3.1146 C   0  0  0  0  0  0  0  0  0  0  0  0
    1.8301   -7.5982    2.3877 C   0  0  0  0  0  0  0  0  0  0  0  0
    2.3953   -8.8360    2.9315 C   0  0  0  0  0  0  0  0  0  0  0  0
    2.8778   -8.8362    4.0549 O   0  0  0  0  0  0  0  0  0  0  0  0
    2.3182  -10.0820    2.0718 C   0  0  0  0  0  0  0  0  0  0  0  0
    2.6245  -11.1674    2.5400 O   0  0  0  0  0  0  0  0  0  0  0  0
    1.9279   -9.8380    0.6278 C   0  0  1  0  0  0  0  0  0  0  0  0
    1.0058   -8.7568    0.4243 O   0  0  0  0  0  0  0  0  0  0  0  0
    1.1595   -7.6389    1.1855 C   0  0  0  0  0  0  0  0  0  0  0  0
    0.5593   -6.4650    0.7385 C   0  0  0  0  0  0  0  0  0  0  0  0
   -0.1137   -6.4924   -0.4238 F   0  0  0  0  0  0  0  0  0  0  0  0
    3.1486   -9.6498   -0.2317 C   0  0  1  0  0  0  0  0  0  0  0  0
    4.0094   -8.5374    0.1152 O   0  0  0  0  0  0  0  0  0  0  0  0
    3.8324  -10.8222   -0.6334 O   0  0  0  0  0  0  0  0  0  0  0  0
    3.1640  -10.1574   -1.5904 C   0  0  0  0  0  0  0  0  0  0  0  0
    2.2780  -10.5090   -2.3147 O   0  0  0  0  0  0  0  0  0  0  0  0
    3.2675    0.7325    3.2396 C   0  0  0  0  0  0  0  0  0  0  0  0
    2.3115    0.7559    2.4757 O   0  0  0  0  0  0  0  0  0  0  0  0
    4.3813    1.7528    3.1889 C   0  0  0  0  0  0  0  0  0  0  0  0
    4.1677    2.8503    2.7031 O   0  0  0  0  0  0  0  0  0  0  0  0
    5.7257    1.4175    3.8112 C   0  0  0  0  0  0  0  0  0  0  0  0
    6.6572    2.2023    3.8033 O   0  0  0  0  0  0  0  0  0  0  0  0
  1  2  1  0  0  0  0
  2  3  2  0  0  0  0
  3  4  1  0  0  0  0
  3 52  1  0  0  0  0
  4  5  1  0  0  0  0
  5  6  1  6  0  0  0
  5 48  1  0  0  0  0
  6  7  1  0  0  0  0
  7  8  2  0  0  0  0
  7 12  1  0  0  0  0
  8  9  1  0  0  0  0
  8 25  1  0  0  0  0
  9 10  1  0  0  0  0
 10 11  2  0  0  0  0
 10 21  1  0  0  0  0
 11 12  1  0  0  0  0
 11 13  1  0  0  0  0
 13 14  1  0  0  0  0
 13 19  1  0  0  0  0
 14 15  1  0  0  0  0
 15 16  2  0  0  0  0
 15 17  1  0  0  0  0
 17 18  1  0  0  0  0
 18 19  1  0  0  0  0
 18 24  1  0  0  0  0
 19 20  2  0  0  0  0
 20 21  1  0  0  0  0
 20 22  1  0  0  0  0
 22 23  1  0  0  0  0
 25 26  2  0  0  0  0
 25 31  1  0  0  0  0
 26 27  1  0  0  0  0
 27 28  1  0  0  0  0
 27 29  2  0  0  0  0
 29 30  1  0  0  0  0
 30 31  2  0  0  0  0
 30 41  1  0  0  0  0
 31 32  1  0  0  0  0
 32 33  2  0  0  0  0
 33 34  1  0  0  0  0
 33 40  1  0  0  0  0
 34 35  2  0  0  0  0
 34 36  1  0  0  0  0
 36 37  2  0  0  0  0
 38 36  1  1  0  0  0
 38 39  1  0  0  0  0
 38 43  1  0  0  0  0
 39 40  1  0  0  0  0
 40 41  2  0  0  0  0
 41 42  1  0  0  0  0
 43 44  1  1  0  0  0
 43 45  1  0  0  0  0
 43 46  1  0  0  0  0
 45 46  1  0  0  0  0
 46 47  2  0  0  0  0
 48 49  2  0  0  0  0
 48 50  1  0  0  0  0
 50 51  2  0  0  0  0
 50 52  1  0  0  0  0
 52 53  2  0  0  0  0
M  CHG  2  21   1  27   1
M  END
$$$$