
 OpenBabel11272001143D

 54 62  0  0  1  0  0  0  0  0999 V2000
   -1.0585   -0.0413    4.5667 F   0  0  0  0  0  0  0  0  0  0  0  0
   -0.4827   -0.6580    3.5172 C   0  0  0  0  0  0  0  0  0  0  0  0
    0.4968   -0.0771    2.8225 C   0  0  0  0  0  0  0  0  0  0  0  0
    0.9145    1.1957    3.1459 O   0  0  0  0  0  0  0  0  0  0  0  0
    2.2895    1.4464    2.8783 C   0  0  2  0  0  0  0  0  0  0  0  0
    2.6424    2.7736    3.2750 O   0  0  0  0  0  0  0  0  0  0  0  0
    2.4765    3.0949    4.6187 C   0  0  0  0  0  0  0  0  0  0  0  0
    2.1896    4.3568    5.0009 C   0  0  0  0  0  0  0  0  0  0  0  0
    2.0544    4.7632    6.3210 O   0  0  0  0  0  0  0  0  0  0  0  0
    2.3067    3.8523    7.3241 C   0  0  0  0  0  0  0  0  0  0  0  0
    2.6305    2.5417    7.0557 C   0  0  0  0  0  0  0  0  0  0  0  0
    2.6940    2.0297    5.6556 C   0  0  0  0  0  0  0  0  0  0  0  0
    2.8566    1.7171    8.1512 C   0  0  0  0  0  0  0  0  0  0  0  0
    3.2486    0.3959    7.9009 O   0  0  0  0  0  0  0  0  0  0  0  0
    3.2961   -0.5766    8.8945 C   0  0  0  0  0  0  0  0  0  0  0  0
    3.5792   -1.7379    8.6329 O   0  0  0  0  0  0  0  0  0  0  0  0
    2.9354   -0.1842   10.1380 O   0  0  0  0  0  0  0  0  0  0  0  0
    2.9988    1.1813   10.5380 C   0  0  3  0  0  0  0  0  0  0  0  0
    2.7462    2.1654    9.4522 C   0  0  0  0  0  0  0  0  0  0  0  0
    2.4560    3.5218    9.6500 C   0  0  0  0  0  0  0  0  0  0  0  0
    2.2197    4.3400    8.5795 N   0  0  0  0  0  0  0  0  0  0  0  0
    2.4199    4.1483   11.0295 C   0  0  0  0  0  0  0  0  0  0  0  0
    3.6667    4.6289   11.5581 O   0  0  0  0  0  0  0  0  0  0  0  0
    2.6525    5.5628   11.1380 O   0  0  0  0  0  0  0  0  0  0  0  0
    1.9941    1.3267   11.5275 O   0  0  0  0  0  0  0  0  0  0  0  0
    1.9946    5.4405    4.0200 C   0  0  0  0  0  0  0  0  0  0  0  0
    3.1233    6.1035    3.7029 N   0  0  0  0  0  0  0  0  0  0  0  0
    3.0037    7.0337    2.7546 C   0  0  0  0  0  0  0  0  0  0  0  0
    4.1099    7.7137    2.4214 F   0  0  0  0  0  0  0  0  0  0  0  0
    1.8771    7.3570    2.1073 N   0  0  0  0  0  0  0  0  0  0  0  0
    0.7609    6.6883    2.4319 C   0  0  0  0  0  0  0  0  0  0  0  0
    0.7461    5.7029    3.4297 C   0  0  0  0  0  0  0  0  0  0  0  0
   -0.4719    5.0544    3.7541 C   0  0  0  0  0  0  0  0  0  0  0  0
   -1.6398    5.3475    3.0461 C   0  0  0  0  0  0  0  0  0  0  0  0
   -2.8953    4.6702    3.3725 C   0  0  0  0  0  0  0  0  0  0  0  0
   -3.0504    4.0951    4.4382 O   0  0  0  0  0  0  0  0  0  0  0  0
   -3.9886    4.7086    2.3313 C   0  0  0  0  0  0  0  0  0  0  0  0
   -4.9785    3.9969    2.4417 O   0  0  0  0  0  0  0  0  0  0  0  0
   -3.7213    5.6144    1.1477 C   0  0  1  0  0  0  0  0  0  0  0  0
   -2.7377    6.6352    1.3076 O   0  0  0  0  0  0  0  0  0  0  0  0
   -1.6261    6.2903    2.0322 C   0  0  0  0  0  0  0  0  0  0  0  0
   -0.4401    6.9967    1.7583 C   0  0  0  0  0  0  0  0  0  0  0  0
   -0.4061    7.8648    0.6307 N   0  0  0  0  0  0  0  0  0  0  0  0
   -3.4277    4.8120   -0.0808 C   0  0  1  0  0  0  0  0  0  0  0  0
   -2.2886    3.9191   -0.0153 O   0  0  0  0  0  0  0  0  0  0  0  0
   -4.5839    4.3014   -0.7484 O   0  0  0  0  0  0  0  0  0  0  0  0
   -3.8502    5.2061   -1.4242 C   0  0  0  0  0  0  0  0  0  0  0  0
   -3.2943    5.0994   -2.4942 O   0  0  0  0  0  0  0  0  0  0  0  0
    2.5383    1.2350    1.3847 C   0  0  0  0  0  0  0  0  0  0  0  0
    3.0755    2.0736    0.6611 O   0  0  0  0  0  0  0  0  0  0  0  0
    2.1951   -0.1506    0.8940 C   0  0  3  0  0  0  0  0  0  0  0  0
    1.0985   -0.8317    1.6814 C   0  0  0  0  0  0  0  0  0  0  0  0
    0.7287   -1.9771    1.4241 O   0  0  0  0  0  0  0  0  0  0  0  0
    1.9114   -0.1567   -0.4430 F   0  0  0  0  0  0  0  0  0  0  0  0
  1  2  1  0  0  0  0
  2  3  2  0  0  0  0
  3  4  1  0  0  0  0
  3 52  1  0  0  0  0
  4  5  1  0  0  0  0
  5  6  1  6  0  0  0
  5 49  1  0  0  0  0
  6  7  1  0  0  0  0
  7  8  2  0  0  0  0
  7 12  1  0  0  0  0
  8  9  1  0  0  0  0
  8 26  1  0  0  0  0
  9 10  1  0  0  0  0
 10 11  2  0  0  0  0
 10 21  1  0  0  0  0
 11 12  1  0  0  0  0
 11 13  1  0  0  0  0
 13 14  1  0  0  0  0
 13 19  2  0  0  0  0
 14 15  1  0  0  0  0
 15 16  2  0  0  0  0
 15 17  1  0  0  0  0
 17 18  1  0  0  0  0
 18 19  1  0  0  0  0
 18 25  1  0  0  0  0
 19 20  1  0  0  0  0
 20 21  2  0  0  0  0
 20 22  1  0  0  0  0
 22 23  1  0  0  0  0
 22 24  1  0  0  0  0
 23 24  1  0  0  0  0
 26 27  2  0  0  0  0
 26 32  1  0  0  0  0
 27 28  1  0  0  0  0
 28 29  1  0  0  0  0
 28 30  2  0  0  0  0
 30 31  1  0  0  0  0
 31 32  2  0  0  0  0
 31 42  1  0  0  0  0
 32 33  1  0  0  0  0
 33 34  2  0  0  0  0
 34 35  1  0  0  0  0
 34 41  1  0  0  0  0
 35 36  2  0  0  0  0
 35 37  1  0  0  0  0
 37 38  2  0  0  0  0
 39 37  1  1  0  0  0
 39 40  1  0  0  0  0
 39 44  1  0  0  0  0
 40 41  1  0  0  0  0
 41 42  2  0  0  0  0
 42 43  1  0  0  0  0
 44 45  1  1  0  0  0
 44 46  1  0  0  0  0
 44 47  1  0  0  0  0
 46 47  1  0  0  0  0
 47 48  2  0  0  0  0
 49 50  2  0  0  0  0
 49 51  1  0  0  0  0
 51 52  1  0  0  0  0
 51 54  1  0  0  0  0
 52 53  2  0  0  0  0
M  END
$$$$