
 OpenBabel11212020273D

 53 61  0  0  1  0  0  0  0  0999 V2000
    6.8414    3.0031    4.6129 O   0  0  0  0  0  0  0  0  0  0  0  0
    6.2187    3.7695    3.6633 C   0  0  0  0  0  0  0  0  0  0  0  0
    4.9680    3.5272    3.2547 C   0  0  0  0  0  0  0  0  0  0  0  0
    4.2657    2.4417    3.7490 O   0  0  0  0  0  0  0  0  0  0  0  0
    2.8602    2.6516    3.8659 C   0  0  2  0  0  0  0  0  0  0  0  0
    2.2256    1.5121    4.4509 O   0  0  0  0  0  0  0  0  0  0  0  0
    2.5214    1.2229    5.7806 C   0  0  0  0  0  0  0  0  0  0  0  0
    2.4928   -0.0468    6.2282 C   0  0  0  0  0  0  0  0  0  0  0  0
    2.7511   -0.4046    7.5435 O   0  0  0  0  0  0  0  0  0  0  0  0
    3.0733    0.5805    8.4570 C   0  0  0  0  0  0  0  0  0  0  0  0
    3.1076    1.8835    8.1281 C   0  0  0  0  0  0  0  0  0  0  0  0
    2.8071    2.3549    6.7389 C   0  0  0  0  0  0  0  0  0  0  0  0
    3.5301    2.9090    9.1495 C   0  0  3  0  0  0  0  0  0  0  0  0
    2.5301    3.9176    9.2384 O   0  0  0  0  0  0  0  0  0  0  0  0
    2.8558    4.9791   10.0236 C   0  0  0  0  0  0  0  0  0  0  0  0
    2.3555    6.0827    9.8663 O   0  0  0  0  0  0  0  0  0  0  0  0
    3.8160    4.7361   10.9569 O   0  0  0  0  0  0  0  0  0  0  0  0
    3.9145    3.4260   11.5381 C   0  0  0  0  0  0  0  0  0  0  0  0
    3.7167    2.3594   10.5258 C   0  0  0  0  0  0  0  0  0  0  0  0
    3.6552    1.0336   10.7785 C   0  0  0  0  0  0  0  0  0  0  0  0
    3.3772    0.1741    9.7307 N   0  0  0  0  0  0  0  0  0  0  0  0
    3.8493    0.4218   12.1118 C   0  0  0  0  0  0  0  0  0  0  0  0
    4.4149   -0.8903   12.2738 O   0  0  0  0  0  0  0  0  0  0  0  0
    5.1569    0.2734   12.6877 O   0  0  0  0  0  0  0  0  0  0  0  0
    2.2254   -1.1971    5.3531 C   0  0  0  0  0  0  0  0  0  0  0  0
    0.9394   -1.5944    5.3228 N   0  0  0  0  0  0  0  0  0  0  0  0
    0.6685   -2.6187    4.5139 C   0  0  0  0  0  0  0  0  0  0  0  0
   -0.6080   -3.0207    4.4410 F   0  0  0  0  0  0  0  0  0  0  0  0
    1.5586   -3.2852    3.7666 N   0  0  0  0  0  0  0  0  0  0  0  0
    2.8348   -2.8722    3.8037 C   0  0  0  0  0  0  0  0  0  0  0  0
    3.2483   -1.8051    4.6103 C   0  0  0  0  0  0  0  0  0  0  0  0
    4.6091   -1.4077    4.6173 C   0  0  0  0  0  0  0  0  0  0  0  0
    5.5292   -2.0224    3.7708 C   0  0  0  0  0  0  0  0  0  0  0  0
    6.9236   -1.5623    3.7311 C   0  0  0  0  0  0  0  0  0  0  0  0
    7.3511   -0.7299    4.5152 O   0  0  0  0  0  0  0  0  0  0  0  0
    7.8086   -2.1653    2.6656 C   0  0  0  0  0  0  0  0  0  0  0  0
    9.0233   -2.0287    2.7044 O   0  0  0  0  0  0  0  0  0  0  0  0
    7.0586   -2.8752    1.5665 C   0  0  1  0  0  0  0  0  0  0  0  0
    5.9484   -3.6572    2.0266 O   0  0  0  0  0  0  0  0  0  0  0  0
    5.1203   -3.0522    2.9369 C   0  0  0  0  0  0  0  0  0  0  0  0
    3.7950   -3.5273    3.0062 C   0  0  0  0  0  0  0  0  0  0  0  0
    3.3696   -4.5188    2.0775 N   0  0  0  0  0  0  0  0  0  0  0  0
    6.6265   -1.9235    0.4892 C   0  0  1  0  0  0  0  0  0  0  0  0
    5.7299   -0.8566    0.8705 O   0  0  0  0  0  0  0  0  0  0  0  0
    7.6441   -1.5461   -0.4519 O   0  0  0  0  0  0  0  0  0  0  0  0
    6.6552   -2.3139   -0.9087 C   0  0  0  0  0  0  0  0  0  0  0  0
    6.6439   -3.3965   -1.4544 O   0  0  0  0  0  0  0  0  0  0  0  0
    2.2889    2.8979    2.4805 C   0  0  0  0  0  0  0  0  0  0  0  0
    1.3786    2.2888    1.9406 O   0  0  0  0  0  0  0  0  0  0  0  0
    2.9823    4.0410    1.7846 C   0  0  0  0  0  0  0  0  0  0  0  0
    2.4135    4.6584    0.8985 O   0  0  0  0  0  0  0  0  0  0  0  0
    4.3744    4.4377    2.2338 C   0  0  0  0  0  0  0  0  0  0  0  0
    4.9265    5.4386    1.8067 O   0  0  0  0  0  0  0  0  0  0  0  0
  1  2  1  0  0  0  0
  2  3  2  0  0  0  0
  3  4  1  0  0  0  0
  3 52  1  0  0  0  0
  4  5  1  0  0  0  0
  5  6  1  6  0  0  0
  5 48  1  0  0  0  0
  6  7  1  0  0  0  0
  7  8  2  0  0  0  0
  7 12  1  0  0  0  0
  8  9  1  0  0  0  0
  8 25  1  0  0  0  0
  9 10  1  0  0  0  0
 10 11  2  0  0  0  0
 10 21  1  0  0  0  0
 11 12  1  0  0  0  0
 11 13  1  0  0  0  0
 13 14  1  0  0  0  0
 13 19  1  0  0  0  0
 14 15  1  0  0  0  0
 15 16  2  0  0  0  0
 15 17  1  0  0  0  0
 17 18  1  0  0  0  0
 18 19  1  0  0  0  0
 19 20  2  0  0  0  0
 20 21  1  0  0  0  0
 20 22  1  0  0  0  0
 22 23  1  0  0  0  0
 22 24  1  0  0  0  0
 23 24  1  0  0  0  0
 25 26  2  0  0  0  0
 25 31  1  0  0  0  0
 26 27  1  0  0  0  0
 27 28  1  0  0  0  0
 27 29  2  0  0  0  0
 29 30  1  0  0  0  0
 30 31  2  0  0  0  0
 30 41  1  0  0  0  0
 31 32  1  0  0  0  0
 32 33  2  0  0  0  0
 33 34  1  0  0  0  0
 33 40  1  0  0  0  0
 34 35  2  0  0  0  0
 34 36  1  0  0  0  0
 36 37  2  0  0  0  0
 38 36  1  1  0  0  0
 38 39  1  0  0  0  0
 38 43  1  0  0  0  0
 39 40  1  0  0  0  0
 40 41  2  0  0  0  0
 41 42  1  0  0  0  0
 43 44  1  1  0  0  0
 43 45  1  0  0  0  0
 43 46  1  0  0  0  0
 45 46  1  0  0  0  0
 46 47  2  0  0  0  0
 48 49  2  0  0  0  0
 48 50  1  0  0  0  0
 50 51  2  0  0  0  0
 50 52  1  0  0  0  0
 52 53  2  0  0  0  0
M  END
$$$$