
 OpenBabel11212001533D

 53 61  0  0  1  0  0  0  0  0999 V2000
    1.1353    5.3100    5.0408 O   0  0  0  0  0  0  0  0  0  0  0  0
    2.4779    5.2805    4.7654 C   0  0  0  0  0  0  0  0  0  0  0  0
    3.1714    4.1386    4.7526 C   0  0  0  0  0  0  0  0  0  0  0  0
    2.5471    2.9392    5.0488 O   0  0  0  0  0  0  0  0  0  0  0  0
    2.9296    1.8678    4.1940 C   0  0  2  0  0  0  0  0  0  0  0  0
    2.1603    0.6816    4.4721 O   0  0  0  0  0  0  0  0  0  0  0  0
    2.2677    0.0773    5.7179 C   0  0  0  0  0  0  0  0  0  0  0  0
    2.1065   -1.2554    5.8532 C   0  0  0  0  0  0  0  0  0  0  0  0
    2.2146   -1.9190    7.0741 O   0  0  0  0  0  0  0  0  0  0  0  0
    2.6073   -1.2081    8.2034 C   0  0  0  0  0  0  0  0  0  0  0  0
    2.7334    0.1301    8.1798 C   0  0  0  0  0  0  0  0  0  0  0  0
    2.4898    0.9308    6.9370 C   0  0  0  0  0  0  0  0  0  0  0  0
    3.2144    0.9082    9.3664 C   0  0  3  0  0  0  0  0  0  0  0  0
    2.1753    1.7646    9.7988 O   0  0  0  0  0  0  0  0  0  0  0  0
    2.4711    2.5718   10.8550 C   0  0  0  0  0  0  0  0  0  0  0  0
    1.7962    3.5504   11.1267 O   0  0  0  0  0  0  0  0  0  0  0  0
    3.5694    2.2204   11.5695 O   0  0  0  0  0  0  0  0  0  0  0  0
    4.0248    0.8716   11.6375 C   0  0  3  0  0  0  0  0  0  0  0  0
    3.5207    0.0330   10.5185 C   0  0  0  0  0  0  0  0  0  0  0  0
    3.3574   -1.3094   10.4883 C   0  0  0  0  0  0  0  0  0  0  0  0
    2.8756   -1.9285    9.3411 O   0  3  0  0  0  0  0  0  0  0  0  0
    3.7122   -2.2185   11.6042 C   0  0  0  0  0  0  0  0  0  0  0  0
    3.4915   -3.6363   11.4870 O   0  0  0  0  0  0  0  0  0  0  0  0
    4.8310   -3.1089   11.4924 O   0  0  0  0  0  0  0  0  0  0  0  0
    5.4299    0.8628   11.4947 O   0  0  0  0  0  0  0  0  0  0  0  0
    1.7795   -2.1335    4.7169 C   0  0  0  0  0  0  0  0  0  0  0  0
    0.4428   -2.3418    4.4155 C   0  0  0  0  0  0  0  0  0  0  0  0
    0.0477   -3.1312    3.4084 N   0  0  0  0  0  0  0  0  0  0  0  0
    0.9905   -3.7422    2.6261 N   0  0  0  0  0  0  0  0  0  0  0  0
    2.3084   -3.5748    2.8416 C   0  0  0  0  0  0  0  0  0  0  0  0
    2.7532   -2.7663    3.9091 C   0  0  0  0  0  0  0  0  0  0  0  0
    4.1434   -2.6350    4.1283 C   0  0  0  0  0  0  0  0  0  0  0  0
    5.0721   -3.2838    3.3088 C   0  0  0  0  0  0  0  0  0  0  0  0
    6.5003   -3.2142    3.6272 C   0  0  0  0  0  0  0  0  0  0  0  0
    6.9026   -2.6608    4.6385 O   0  0  0  0  0  0  0  0  0  0  0  0
    7.4506   -3.8929    2.6688 C   0  0  0  0  0  0  0  0  0  0  0  0
    8.6396   -4.0028    2.9310 O   0  0  0  0  0  0  0  0  0  0  0  0
    6.8442   -4.2729    1.3390 C   0  0  1  0  0  0  0  0  0  0  0  0
    5.4803   -4.7188    1.3902 O   0  0  0  0  0  0  0  0  0  0  0  0
    4.6464   -4.0463    2.2381 C   0  0  0  0  0  0  0  0  0  0  0  0
    3.2708   -4.1959    2.0282 C   0  0  0  0  0  0  0  0  0  0  0  0
    2.8496   -4.9930    0.9865 O   0  0  0  0  0  0  0  0  0  0  0  0
    7.0132   -3.2013    0.3027 C   0  0  1  0  0  0  0  0  0  0  0  0
    6.4260   -3.4784   -0.9911 O   0  0  0  0  0  0  0  0  0  0  0  0
    6.8577   -1.8677    0.7795 O   0  0  0  0  0  0  0  0  0  0  0  0
    8.0818   -2.1976    0.3082 C   0  0  0  0  0  0  0  0  0  0  0  0
    8.6980   -1.7107   -0.6151 O   0  0  0  0  0  0  0  0  0  0  0  0
    4.4366    1.5921    4.1806 C   0  0  0  0  0  0  0  0  0  0  0  0
    4.9628    0.5220    3.9108 O   0  0  0  0  0  0  0  0  0  0  0  0
    5.2583    2.7955    4.5723 C   0  0  0  0  0  0  0  0  0  0  0  0
    6.3573    2.6513    5.0822 O   0  0  0  0  0  0  0  0  0  0  0  0
    4.6270    4.1658    4.4611 C   0  0  0  0  0  0  0  0  0  0  0  0
    5.2654    5.1531    4.1503 O   0  0  0  0  0  0  0  0  0  0  0  0
  1  2  1  0  0  0  0
  2  3  2  0  0  0  0
  3  4  1  0  0  0  0
  3 52  1  0  0  0  0
  4  5  1  0  0  0  0
  5  6  1  1  0  0  0
  5 48  1  0  0  0  0
  6  7  1  0  0  0  0
  7  8  2  0  0  0  0
  7 12  1  0  0  0  0
  8  9  1  0  0  0  0
  8 26  1  0  0  0  0
  9 10  1  0  0  0  0
 10 11  2  0  0  0  0
 10 21  1  0  0  0  0
 11 12  1  0  0  0  0
 11 13  1  0  0  0  0
 13 14  1  0  0  0  0
 13 19  1  0  0  0  0
 14 15  1  0  0  0  0
 15 16  2  0  0  0  0
 15 17  1  0  0  0  0
 17 18  1  0  0  0  0
 18 19  1  0  0  0  0
 18 25  1  0  0  0  0
 19 20  2  0  0  0  0
 20 21  1  0  0  0  0
 20 22  1  0  0  0  0
 22 23  1  0  0  0  0
 22 24  1  0  0  0  0
 23 24  1  0  0  0  0
 26 27  2  0  0  0  0
 26 31  1  0  0  0  0
 27 28  1  0  0  0  0
 28 29  2  0  0  0  0
 29 30  1  0  0  0  0
 30 31  2  0  0  0  0
 30 41  1  0  0  0  0
 31 32  1  0  0  0  0
 32 33  2  0  0  0  0
 33 34  1  0  0  0  0
 33 40  1  0  0  0  0
 34 35  2  0  0  0  0
 34 36  1  0  0  0  0
 36 37  2  0  0  0  0
 38 36  1  1  0  0  0
 38 39  1  0  0  0  0
 38 43  1  0  0  0  0
 39 40  1  0  0  0  0
 40 41  2  0  0  0  0
 41 42  1  0  0  0  0
 43 44  1  6  0  0  0
 43 45  1  0  0  0  0
 43 46  1  0  0  0  0
 45 46  1  0  0  0  0
 46 47  2  0  0  0  0
 48 49  2  0  0  0  0
 48 50  1  0  0  0  0
 50 51  2  0  0  0  0
 50 52  1  0  0  0  0
 52 53  2  0  0  0  0
M  CHG  1  21   1
M  END
$$$$