
 OpenBabel11222001153D

 54 62  0  0  1  0  0  0  0  0999 V2000
   -1.8887    5.6897   -3.1694 O   0  0  0  0  0  0  0  0  0  0  0  0
   -1.9665    4.3180   -3.1622 C   0  0  0  0  0  0  0  0  0  0  0  0
   -0.9169    3.4989   -2.9903 C   0  0  0  0  0  0  0  0  0  0  0  0
    0.3740    3.9655   -2.8625 O   0  0  0  0  0  0  0  0  0  0  0  0
    1.2045    3.2654   -1.9360 C   0  0  2  0  0  0  0  0  0  0  0  0
    2.5483    3.8393   -1.7910 O   0  0  0  0  0  0  0  0  0  0  0  0
    2.7457    5.2155   -1.7296 C   0  0  0  0  0  0  0  0  0  0  0  0
    3.9670    5.7600   -1.4956 C   0  0  0  0  0  0  0  0  0  0  0  0
    4.2065    7.1444   -1.5921 O   0  0  0  0  0  0  0  0  0  0  0  0
    3.1326    8.0255   -1.7889 C   0  0  0  0  0  0  0  0  0  0  0  0
    1.8805    7.5650   -1.9161 C   0  0  0  0  0  0  0  0  0  0  0  0
    1.5676    6.1166   -1.9726 C   0  0  0  0  0  0  0  0  0  0  0  0
    0.6846    8.4527   -2.0810 C   0  0  3  0  0  0  0  0  0  0  0  0
   -0.1293    8.2493   -0.9405 O   0  0  0  0  0  0  0  0  0  0  0  0
   -1.2594    8.9928   -0.8311 C   0  0  0  0  0  0  0  0  0  0  0  0
   -2.1488    8.6873   -0.0545 O   0  0  0  0  0  0  0  0  0  0  0  0
   -1.3199   10.0929   -1.6181 O   0  0  0  0  0  0  0  0  0  0  0  0
   -0.1772   10.6937   -2.2208 C   0  0  3  0  0  0  0  0  0  0  0  0
    1.0593    9.8789   -2.0751 C   0  0  0  0  0  0  0  0  0  0  0  0
    2.3402   10.2980   -1.9569 C   0  0  0  0  0  0  0  0  0  0  0  0
    3.3809    9.3779   -1.8430 O   0  3  0  0  0  0  0  0  0  0  0  0
    2.7562   11.7182   -1.9682 C   0  0  0  0  0  0  0  0  0  0  0  0
    4.1503   12.0571   -1.8419 O   0  0  0  0  0  0  0  0  0  0  0  0
    3.4602   12.2676   -3.0880 O   0  0  0  0  0  0  0  0  0  0  0  0
   -0.3962   10.7833   -3.6137 O   0  0  0  0  0  0  0  0  0  0  0  0
    5.1788    4.9620   -1.1550 C   0  0  0  0  0  0  0  0  0  0  0  0
    5.9435    4.4382   -2.1949 C   0  0  0  0  0  0  0  0  0  0  0  0
    7.0332    3.7022   -1.9433 N   0  3  0  0  0  0  0  0  0  0  0  0
    7.7809    3.2584   -2.9721 F   0  0  0  0  0  0  0  0  0  0  0  0
    7.4221    3.4015   -0.7223 N   0  0  0  0  0  0  0  0  0  0  0  0
    6.7488    3.8733    0.3265 C   0  0  0  0  0  0  0  0  0  0  0  0
    5.6155    4.7017    0.1739 C   0  0  0  0  0  0  0  0  0  0  0  0
    5.0208    5.2164    1.3559 C   0  0  0  0  0  0  0  0  0  0  0  0
    5.5351    4.9010    2.6290 C   0  0  0  0  0  0  0  0  0  0  0  0
    4.9364    5.4712    3.8354 C   0  0  0  0  0  0  0  0  0  0  0  0
    3.9042    6.1220    3.7978 O   0  0  0  0  0  0  0  0  0  0  0  0
    5.6397    5.2267    5.1410 C   0  0  0  0  0  0  0  0  0  0  0  0
    5.0455    5.4672    6.2669 N   0  0  0  0  0  0  0  0  0  0  0  0
    7.0563    4.7046    5.0361 C   0  0  1  0  0  0  0  0  0  0  0  0
    7.2182    3.7589    3.9609 O   0  0  0  0  0  0  0  0  0  0  0  0
    6.6298    4.0679    2.7663 C   0  0  0  0  0  0  0  0  0  0  0  0
    7.2064    3.5521    1.6074 C   0  0  0  0  0  0  0  0  0  0  0  0
    8.2844    2.7586    1.7219 F   0  0  0  0  0  0  0  0  0  0  0  0
    8.0780    5.8232    4.9942 C   0  0  1  0  0  0  0  0  0  0  0  0
    8.1232    6.6948    6.1404 O   0  0  0  0  0  0  0  0  0  0  0  0
    9.3642    5.4696    4.4578 O   0  0  0  0  0  0  0  0  0  0  0  0
    8.6478    6.3676    3.7780 C   0  0  0  0  0  0  0  0  0  0  0  0
    8.2586    6.4005    2.6190 O   0  0  0  0  0  0  0  0  0  0  0  0
    1.3574    1.8221   -2.3954 C   0  0  0  0  0  0  0  0  0  0  0  0
    2.4125    1.2015   -2.4118 O   0  0  0  0  0  0  0  0  0  0  0  0
    0.0509    1.1811   -2.8127 C   0  0  0  0  0  0  0  0  0  0  0  0
   -0.0104   -0.0305   -2.9424 O   0  0  0  0  0  0  0  0  0  0  0  0
   -1.1780    2.0365   -3.0407 C   0  0  0  0  0  0  0  0  0  0  0  0
   -2.2779    1.5509   -3.2355 O   0  0  0  0  0  0  0  0  0  0  0  0
  1  2  1  0  0  0  0
  2  3  2  0  0  0  0
  3  4  1  0  0  0  0
  3 53  1  0  0  0  0
  4  5  1  0  0  0  0
  5  6  1  6  0  0  0
  5 49  1  0  0  0  0
  6  7  1  0  0  0  0
  7  8  2  0  0  0  0
  7 12  1  0  0  0  0
  8  9  1  0  0  0  0
  8 26  1  0  0  0  0
  9 10  1  0  0  0  0
 10 11  2  0  0  0  0
 10 21  1  0  0  0  0
 11 12  1  0  0  0  0
 11 13  1  0  0  0  0
 13 14  1  0  0  0  0
 13 19  1  0  0  0  0
 14 15  1  0  0  0  0
 15 16  2  0  0  0  0
 15 17  1  0  0  0  0
 17 18  1  0  0  0  0
 18 19  1  0  0  0  0
 18 25  1  0  0  0  0
 19 20  2  0  0  0  0
 20 21  1  0  0  0  0
 20 22  1  0  0  0  0
 22 23  1  0  0  0  0
 22 24  1  0  0  0  0
 23 24  1  0  0  0  0
 26 27  2  0  0  0  0
 26 32  1  0  0  0  0
 27 28  1  0  0  0  0
 28 29  1  0  0  0  0
 28 30  2  0  0  0  0
 30 31  1  0  0  0  0
 31 32  2  0  0  0  0
 31 42  1  0  0  0  0
 32 33  1  0  0  0  0
 33 34  2  0  0  0  0
 34 35  1  0  0  0  0
 34 41  1  0  0  0  0
 35 36  2  0  0  0  0
 35 37  1  0  0  0  0
 37 38  2  0  0  0  0
 39 37  1  6  0  0  0
 39 40  1  0  0  0  0
 39 44  1  0  0  0  0
 40 41  1  0  0  0  0
 41 42  2  0  0  0  0
 42 43  1  0  0  0  0
 44 45  1  1  0  0  0
 44 46  1  0  0  0  0
 44 47  1  0  0  0  0
 46 47  1  0  0  0  0
 47 48  2  0  0  0  0
 49 50  2  0  0  0  0
 49 51  1  0  0  0  0
 51 52  2  0  0  0  0
 51 53  1  0  0  0  0
 53 54  2  0  0  0  0
M  CHG  2  21   1  28   1
M  END
$$$$