
 OpenBabel11212021543D

 55 63  0  0  1  0  0  0  0  0999 V2000
   16.3127    7.7615    7.4145 O   0  0  0  0  0  0  0  0  0  0  0  0
   16.0210    8.3766    8.6046 C   0  0  0  0  0  0  0  0  0  0  0  0
   14.7708    8.6299    9.0068 C   0  0  0  0  0  0  0  0  0  0  0  0
   13.6769    8.3207    8.2119 O   0  0  0  0  0  0  0  0  0  0  0  0
   12.6698    7.6503    8.9513 C   0  0  2  0  0  0  0  0  0  0  0  0
   11.5861    7.2505    8.0803 O   0  0  0  0  0  0  0  0  0  0  0  0
   11.6442    6.0262    7.4202 C   0  0  0  0  0  0  0  0  0  0  0  0
   10.6700    5.6451    6.5549 C   0  0  0  0  0  0  0  0  0  0  0  0
   10.7639    4.4592    5.8066 O   0  0  0  0  0  0  0  0  0  0  0  0
   11.9063    3.6504    5.9125 C   0  0  0  0  0  0  0  0  0  0  0  0
   12.8365    3.9031    6.8485 C   0  0  0  0  0  0  0  0  0  0  0  0
   12.7689    5.0885    7.7480 C   0  0  0  0  0  0  0  0  0  0  0  0
   14.0247    3.0185    7.0739 C   0  0  3  0  0  0  0  0  0  0  0  0
   13.8687    2.4649    8.3682 O   0  0  0  0  0  0  0  0  0  0  0  0
   14.7433    1.5112    8.7820 C   0  0  0  0  0  0  0  0  0  0  0  0
   14.8159    1.1945    9.9578 O   0  0  0  0  0  0  0  0  0  0  0  0
   15.4948    0.9276    7.8191 O   0  0  0  0  0  0  0  0  0  0  0  0
   15.2597    1.0637    6.4214 C   0  0  3  0  0  0  0  0  0  0  0  0
   14.0633    1.8935    6.1210 C   0  0  0  0  0  0  0  0  0  0  0  0
   13.1289    1.7088    5.1608 C   0  0  0  0  0  0  0  0  0  0  0  0
   12.0436    2.5771    5.0531 O   0  3  0  0  0  0  0  0  0  0  0  0
   13.1646    0.5864    4.1952 C   0  0  0  0  0  0  0  0  0  0  0  0
   12.5136   -0.6553    4.4899 O   0  0  0  0  0  0  0  0  0  0  0  0
   11.9816    0.2124    3.4698 O   0  0  0  0  0  0  0  0  0  0  0  0
   16.3447    1.7588    5.8388 O   0  0  0  0  0  0  0  0  0  0  0  0
    9.4162    6.4581    6.3859 C   0  0  0  0  0  0  0  0  0  0  0  0
    8.8838    7.0405    7.5481 C   0  0  0  0  0  0  0  0  0  0  0  0
    7.8710    7.9076    7.5051 N   0  3  0  0  0  0  0  0  0  0  0  0
    7.4215    8.4446    8.6555 F   0  0  0  0  0  0  0  0  0  0  0  0
    7.3227    8.2878    6.3698 N   0  0  0  0  0  0  0  0  0  0  0  0
    7.7487    7.7015    5.2280 C   0  0  0  0  0  0  0  0  0  0  0  0
    6.9972    8.3184    3.7343 P   0  0  0  0  0  0  0  0  0  0  0  0
    7.4112    7.2420    2.4030 C   0  0  0  0  0  0  0  0  0  0  0  0
    8.2709    6.1883    2.6888 C   0  0  0  0  0  0  0  0  0  0  0  0
    8.9368    6.0070    3.9396 C   0  0  0  0  0  0  0  0  0  0  0  0
    8.7328    6.7080    5.1689 C   0  0  0  0  0  0  0  0  0  0  0  0
    8.5347    5.1963    1.6353 C   0  0  0  0  0  0  0  0  0  0  0  0
    9.2220    4.2097    1.8626 O   0  0  0  0  0  0  0  0  0  0  0  0
    7.9313    5.4587    0.2773 C   0  0  0  0  0  0  0  0  0  0  0  0
    7.8866    4.5713   -0.5609 O   0  0  0  0  0  0  0  0  0  0  0  0
    7.5983    6.9045    0.0199 C   0  0  1  0  0  0  0  0  0  0  0  0
    6.9523    7.5324    1.1429 O   0  0  0  0  0  0  0  0  0  0  0  0
    8.8245    7.6302   -0.4858 C   0  0  1  0  0  0  0  0  0  0  0  0
    9.4047    7.1456   -1.7181 O   0  0  0  0  0  0  0  0  0  0  0  0
    8.8020    9.0575   -0.3264 O   0  0  0  0  0  0  0  0  0  0  0  0
    9.7260    8.3910    0.3576 C   0  0  0  0  0  0  0  0  0  0  0  0
    9.9693    8.2953    1.5573 O   0  0  0  0  0  0  0  0  0  0  0  0
    5.4375    8.3620    3.9328 F   0  0  0  0  0  0  0  0  0  0  0  0
    7.5468    9.7676    3.4644 F   0  0  0  0  0  0  0  0  0  0  0  0
   12.0868    8.5037   10.0675 C   0  0  0  0  0  0  0  0  0  0  0  0
   10.9326    8.4072   10.4668 O   0  0  0  0  0  0  0  0  0  0  0  0
   13.1065    9.4298   10.7001 C   0  0  0  0  0  0  0  0  0  0  0  0
   12.7447   10.3291   11.4377 O   0  0  0  0  0  0  0  0  0  0  0  0
   14.5705    9.2368   10.3539 C   0  0  0  0  0  0  0  0  0  0  0  0
   15.4656    9.4830   11.1403 O   0  0  0  0  0  0  0  0  0  0  0  0
  1  2  1  0  0  0  0
  2  3  2  0  0  0  0
  3  4  1  0  0  0  0
  3 54  1  0  0  0  0
  4  5  1  0  0  0  0
  5  6  1  6  0  0  0
  5 50  1  0  0  0  0
  6  7  1  0  0  0  0
  7  8  2  0  0  0  0
  7 12  1  0  0  0  0
  8  9  1  0  0  0  0
  8 26  1  0  0  0  0
  9 10  1  0  0  0  0
 10 11  2  0  0  0  0
 10 21  1  0  0  0  0
 11 12  1  0  0  0  0
 11 13  1  0  0  0  0
 13 14  1  0  0  0  0
 13 19  1  0  0  0  0
 14 15  1  0  0  0  0
 15 16  2  0  0  0  0
 15 17  1  0  0  0  0
 17 18  1  0  0  0  0
 18 19  1  0  0  0  0
 18 25  1  0  0  0  0
 19 20  2  0  0  0  0
 20 21  1  0  0  0  0
 20 22  1  0  0  0  0
 22 23  1  0  0  0  0
 22 24  1  0  0  0  0
 23 24  1  0  0  0  0
 26 27  2  0  0  0  0
 26 36  1  0  0  0  0
 27 28  1  0  0  0  0
 28 29  1  0  0  0  0
 28 30  2  0  0  0  0
 30 31  1  0  0  0  0
 31 32  2  0  0  0  0
 31 36  1  0  0  0  0
 32 33  1  0  0  0  0
 32 48  1  0  0  0  0
 32 49  1  0  0  0  0
 33 34  2  0  0  0  0
 33 42  1  0  0  0  0
 34 35  1  0  0  0  0
 34 37  1  0  0  0  0
 35 36  2  0  0  0  0
 37 38  2  0  0  0  0
 37 39  1  0  0  0  0
 39 40  2  0  0  0  0
 41 39  1  1  0  0  0
 41 42  1  0  0  0  0
 41 43  1  0  0  0  0
 43 44  1  6  0  0  0
 43 45  1  0  0  0  0
 43 46  1  0  0  0  0
 45 46  1  0  0  0  0
 46 47  2  0  0  0  0
 50 51  2  0  0  0  0
 50 52  1  0  0  0  0
 52 53  2  0  0  0  0
 52 54  1  0  0  0  0
 54 55  2  0  0  0  0
M  CHG  2  21   1  28   1
M  END
$$$$