
 OpenBabel11212014083D

 53 61  0  0  1  0  0  0  0  0999 V2000
    7.0412   -6.5065    3.2011 O   0  0  0  0  0  0  0  0  0  0  0  0
    7.0592   -5.2492    3.7463 C   0  0  0  0  0  0  0  0  0  0  0  0
    6.1894   -4.2940    3.3976 C   0  0  0  0  0  0  0  0  0  0  0  0
    5.2465   -4.4943    2.4057 O   0  0  0  0  0  0  0  0  0  0  0  0
    3.9242   -4.0987    2.7706 C   0  0  2  0  0  0  0  0  0  0  0  0
    2.9817   -4.3694    1.7093 O   0  0  0  0  0  0  0  0  0  0  0  0
    2.8523   -5.7035    1.3298 C   0  0  0  0  0  0  0  0  0  0  0  0
    2.4773   -6.0594    0.0799 C   0  0  0  0  0  0  0  0  0  0  0  0
    2.3810   -7.3930   -0.3387 O   0  0  0  0  0  0  0  0  0  0  0  0
    2.5769   -8.4163    0.5823 C   0  0  0  0  0  0  0  0  0  0  0  0
    2.8695   -8.1458    1.8612 C   0  0  0  0  0  0  0  0  0  0  0  0
    3.0954   -6.7701    2.3716 C   0  0  0  0  0  0  0  0  0  0  0  0
    2.9751   -9.2745    2.8201 C   0  0  0  0  0  0  0  0  0  0  0  0
    3.1664   -9.0424    4.0764 N   0  0  0  0  0  0  0  0  0  0  0  0
    3.2401  -10.1049    4.9532 C   0  0  0  0  0  0  0  0  0  0  0  0
    3.4030   -9.8565    6.1403 O   0  0  0  0  0  0  0  0  0  0  0  0
    3.1412  -11.4234    4.5567 N   0  0  0  0  0  0  0  0  0  0  0  0
    2.9629  -11.6828    3.3078 C   0  0  0  0  0  0  0  0  0  0  0  0
    2.8401  -10.6442    2.2831 C   0  0  0  0  0  0  0  0  0  0  0  0
    2.6058  -10.8277    0.9669 C   0  0  0  0  0  0  0  0  0  0  0  0
    2.4451   -9.7131    0.1445 N   0  0  0  0  0  0  0  0  0  0  0  0
    2.4944  -12.1543    0.3068 C   0  0  0  0  0  0  0  0  0  0  0  0
    2.2946  -12.2865   -1.1125 O   0  0  0  0  0  0  0  0  0  0  0  0
    3.5515  -12.6672   -0.5200 O   0  0  0  0  0  0  0  0  0  0  0  0
    2.1670   -5.1034   -1.0008 C   0  0  0  0  0  0  0  0  0  0  0  0
    3.2370   -4.7361   -1.7378 N   0  0  0  0  0  0  0  0  0  0  0  0
    3.0073   -4.0028   -2.8247 C   0  0  0  0  0  0  0  0  0  0  0  0
    1.7937   -3.6299   -3.2703 N   0  0  0  0  0  0  0  0  0  0  0  0
    0.7512   -4.0015   -2.5305 C   0  0  0  0  0  0  0  0  0  0  0  0
    0.8488   -4.7314   -1.3416 C   0  0  0  0  0  0  0  0  0  0  0  0
   -0.3422   -5.0510   -0.6269 C   0  0  0  0  0  0  0  0  0  0  0  0
   -1.6019   -4.6884   -1.1318 C   0  0  0  0  0  0  0  0  0  0  0  0
   -2.8374   -5.0517   -0.4187 C   0  0  0  0  0  0  0  0  0  0  0  0
   -2.8224   -5.6627    0.6327 O   0  0  0  0  0  0  0  0  0  0  0  0
   -4.1249   -4.6297   -1.0875 C   0  0  0  0  0  0  0  0  0  0  0  0
   -5.0940   -4.2800   -0.4347 O   0  0  0  0  0  0  0  0  0  0  0  0
   -4.0284   -4.5790   -2.5924 C   0  0  1  0  0  0  0  0  0  0  0  0
   -2.8736   -3.7974   -3.0125 O   0  0  0  0  0  0  0  0  0  0  0  0
   -1.6972   -4.0362   -2.3526 C   0  0  0  0  0  0  0  0  0  0  0  0
   -0.5131   -3.6823   -3.0136 C   0  0  0  0  0  0  0  0  0  0  0  0
   -0.5700   -3.0673   -4.2624 N   0  3  0  0  0  0  0  0  0  0  0  0
   -0.6698   -2.5905   -5.2253 N   0  0  0  0  0  0  0  0  0  0  0  0
   -4.0918   -5.9472   -3.2355 C   0  0  1  0  0  0  0  0  0  0  0  0
   -5.2541   -6.7328   -2.9266 O   0  0  0  0  0  0  0  0  0  0  0  0
   -3.7047   -5.9922   -4.6075 O   0  0  0  0  0  0  0  0  0  0  0  0
   -2.9280   -6.6760   -3.7437 C   0  0  0  0  0  0  0  0  0  0  0  0
   -1.7364   -6.5355   -3.5392 O   0  0  0  0  0  0  0  0  0  0  0  0
    3.8896   -2.6193    3.1230 C   0  0  0  0  0  0  0  0  0  0  0  0
    3.1056   -1.7845    2.6968 O   0  0  0  0  0  0  0  0  0  0  0  0
    4.9369   -2.2623    4.1461 C   0  0  0  0  0  0  0  0  0  0  0  0
    4.6742   -1.4763    5.0423 O   0  0  0  0  0  0  0  0  0  0  0  0
    6.2583   -2.9977    4.1225 C   0  0  0  0  0  0  0  0  0  0  0  0
    7.2536   -2.5681    4.6784 O   0  0  0  0  0  0  0  0  0  0  0  0
  1  2  1  0  0  0  0
  2  3  2  0  0  0  0
  3  4  1  0  0  0  0
  3 52  1  0  0  0  0
  4  5  1  0  0  0  0
  5  6  1  6  0  0  0
  5 48  1  0  0  0  0
  6  7  1  0  0  0  0
  7  8  2  0  0  0  0
  7 12  1  0  0  0  0
  8  9  1  0  0  0  0
  8 25  1  0  0  0  0
  9 10  1  0  0  0  0
 10 11  2  0  0  0  0
 10 21  1  0  0  0  0
 11 12  1  0  0  0  0
 11 13  1  0  0  0  0
 13 14  2  0  0  0  0
 13 19  1  0  0  0  0
 14 15  1  0  0  0  0
 15 16  2  0  0  0  0
 15 17  1  0  0  0  0
 17 18  2  0  0  0  0
 18 19  1  0  0  0  0
 19 20  2  0  0  0  0
 20 21  1  0  0  0  0
 20 22  1  0  0  0  0
 22 23  1  0  0  0  0
 22 24  1  0  0  0  0
 23 24  1  0  0  0  0
 25 26  2  0  0  0  0
 25 30  1  0  0  0  0
 26 27  1  0  0  0  0
 27 28  2  0  0  0  0
 28 29  1  0  0  0  0
 29 30  2  0  0  0  0
 29 40  1  0  0  0  0
 30 31  1  0  0  0  0
 31 32  2  0  0  0  0
 32 33  1  0  0  0  0
 32 39  1  0  0  0  0
 33 34  2  0  0  0  0
 33 35  1  0  0  0  0
 35 36  2  0  0  0  0
 37 35  1  1  0  0  0
 37 38  1  0  0  0  0
 37 43  1  0  0  0  0
 38 39  1  0  0  0  0
 39 40  2  0  0  0  0
 40 41  1  0  0  0  0
 41 42  3  0  0  0  0
 43 44  1  1  0  0  0
 43 45  1  0  0  0  0
 43 46  1  0  0  0  0
 45 46  1  0  0  0  0
 46 47  2  0  0  0  0
 48 49  2  0  0  0  0
 48 50  1  0  0  0  0
 50 51  2  0  0  0  0
 50 52  1  0  0  0  0
 52 53  2  0  0  0  0
M  CHG  1  41   1
M  END
$$$$