
 OpenBabel11272001333D

 53 61  0  0  1  0  0  0  0  0999 V2000
    7.2553   -6.1736    4.0248 O   0  0  0  0  0  0  0  0  0  0  0  0
    6.9200   -5.0574    4.7488 C   0  0  0  0  0  0  0  0  0  0  0  0
    5.9490   -4.2032    4.4037 C   0  0  0  0  0  0  0  0  0  0  0  0
    5.2165   -4.4252    3.2495 O   0  0  0  0  0  0  0  0  0  0  0  0
    3.8900   -3.8961    3.3016 C   0  0  2  0  0  0  0  0  0  0  0  0
    3.1430   -4.1973    2.1164 O   0  0  0  0  0  0  0  0  0  0  0  0
    2.9629   -5.5434    1.8111 C   0  0  0  0  0  0  0  0  0  0  0  0
    2.8343   -5.9584    0.5312 C   0  0  0  0  0  0  0  0  0  0  0  0
    2.6776   -7.2955    0.1676 O   0  0  0  0  0  0  0  0  0  0  0  0
    2.6567   -8.2693    1.1585 C   0  0  0  0  0  0  0  0  0  0  0  0
    2.7028   -7.9412    2.4582 C   0  0  0  0  0  0  0  0  0  0  0  0
    2.8498   -6.5404    2.9387 C   0  0  0  0  0  0  0  0  0  0  0  0
    2.6642   -9.0356    3.4639 C   0  0  0  0  0  0  0  0  0  0  0  0
    2.6693   -8.7627    4.7314 N   0  0  0  0  0  0  0  0  0  0  0  0
    2.6489   -9.8259    5.5858 C   0  0  0  0  0  0  0  0  0  0  0  0
    2.6185   -9.5086    6.8268 N   0  0  0  0  0  0  0  0  0  0  0  0
    2.6623  -11.1524    5.2728 N   0  0  0  0  0  0  0  0  0  0  0  0
    2.6533  -11.4508    4.0175 C   0  0  0  0  0  0  0  0  0  0  0  0
    2.6403  -10.4328    2.9584 C   0  0  0  0  0  0  0  0  0  0  0  0
    2.6288  -10.6622    1.6293 C   0  0  0  0  0  0  0  0  0  0  0  0
    2.6094   -9.5811    0.7553 N   0  0  0  0  0  0  0  0  0  0  0  0
    2.6428  -12.0082    1.0058 C   0  0  0  0  0  0  0  0  0  0  0  0
    1.4302  -12.7223    0.7234 O   0  0  0  0  0  0  0  0  0  0  0  0
    2.2375  -12.2194   -0.3589 O   0  0  0  0  0  0  0  0  0  0  0  0
    2.8548   -5.0271   -0.6117 C   0  0  0  0  0  0  0  0  0  0  0  0
    4.0900   -4.8125   -1.1264 N   0  0  0  0  0  0  0  0  0  0  0  0
    4.1845   -3.9347   -2.1403 C   0  0  0  0  0  0  0  0  0  0  0  0
    5.4076   -3.6811   -2.6256 F   0  0  0  0  0  0  0  0  0  0  0  0
    3.1099   -3.2691   -2.6948 C   0  0  0  0  0  0  0  0  0  0  0  0
    1.8359   -3.4853   -2.1625 C   0  0  0  0  0  0  0  0  0  0  0  0
    1.6804   -4.3877   -1.0893 C   0  0  0  0  0  0  0  0  0  0  0  0
    0.3789   -4.5556   -0.5552 C   0  0  0  0  0  0  0  0  0  0  0  0
   -0.7090   -3.7994   -1.0269 C   0  0  0  0  0  0  0  0  0  0  0  0
   -1.9979   -3.8834   -0.3347 C   0  0  0  0  0  0  0  0  0  0  0  0
   -2.1862   -4.6801    0.5716 O   0  0  0  0  0  0  0  0  0  0  0  0
   -3.0546   -2.8823   -0.7291 C   0  0  0  0  0  0  0  0  0  0  0  0
   -4.0030   -2.6505    0.0088 O   0  0  0  0  0  0  0  0  0  0  0  0
   -2.8513   -2.2355   -2.0815 C   0  0  1  0  0  0  0  0  0  0  0  0
   -1.5267   -2.1074   -2.5865 O   0  0  0  0  0  0  0  0  0  0  0  0
   -0.5519   -2.9141   -2.0799 C   0  0  0  0  0  0  0  0  0  0  0  0
    0.7162   -2.7883   -2.6530 C   0  0  0  0  0  0  0  0  0  0  0  0
    0.8757   -1.9381   -3.6821 F   0  0  0  0  0  0  0  0  0  0  0  0
   -3.6943   -2.9138   -3.1076 C   0  0  1  0  0  0  0  0  0  0  0  0
   -3.4410   -4.3238   -3.3132 O   0  0  0  0  0  0  0  0  0  0  0  0
   -5.0605   -2.5009   -3.1443 O   0  0  0  0  0  0  0  0  0  0  0  0
   -4.3171   -2.2150   -4.2332 C   0  0  0  0  0  0  0  0  0  0  0  0
   -4.4635   -2.5647   -5.3802 O   0  0  0  0  0  0  0  0  0  0  0  0
    4.0003   -2.3872    3.5188 C   0  0  0  0  0  0  0  0  0  0  0  0
    3.5025   -1.5518    2.7638 O   0  0  0  0  0  0  0  0  0  0  0  0
    4.6587   -2.0173    4.8256 C   0  0  3  0  0  0  0  0  0  0  0  0
    5.6966   -3.0153    5.2854 C   0  0  0  0  0  0  0  0  0  0  0  0
    6.2911   -2.8830    6.3549 O   0  0  0  0  0  0  0  0  0  0  0  0
    5.1674   -0.7492    4.8015 F   0  0  0  0  0  0  0  0  0  0  0  0
  1  2  1  0  0  0  0
  2  3  2  0  0  0  0
  3  4  1  0  0  0  0
  3 51  1  0  0  0  0
  4  5  1  0  0  0  0
  5  6  1  6  0  0  0
  5 48  1  0  0  0  0
  6  7  1  0  0  0  0
  7  8  2  0  0  0  0
  7 12  1  0  0  0  0
  8  9  1  0  0  0  0
  8 25  1  0  0  0  0
  9 10  1  0  0  0  0
 10 11  2  0  0  0  0
 10 21  1  0  0  0  0
 11 12  1  0  0  0  0
 11 13  1  0  0  0  0
 13 14  2  0  0  0  0
 13 19  1  0  0  0  0
 14 15  1  0  0  0  0
 15 16  2  0  0  0  0
 15 17  1  0  0  0  0
 17 18  2  0  0  0  0
 18 19  1  0  0  0  0
 19 20  2  0  0  0  0
 20 21  1  0  0  0  0
 20 22  1  0  0  0  0
 22 23  1  0  0  0  0
 22 24  1  0  0  0  0
 23 24  1  0  0  0  0
 25 26  2  0  0  0  0
 25 31  1  0  0  0  0
 26 27  1  0  0  0  0
 27 28  1  0  0  0  0
 27 29  2  0  0  0  0
 29 30  1  0  0  0  0
 30 31  2  0  0  0  0
 30 41  1  0  0  0  0
 31 32  1  0  0  0  0
 32 33  2  0  0  0  0
 33 34  1  0  0  0  0
 33 40  1  0  0  0  0
 34 35  2  0  0  0  0
 34 36  1  0  0  0  0
 36 37  2  0  0  0  0
 38 36  1  1  0  0  0
 38 39  1  0  0  0  0
 38 43  1  0  0  0  0
 39 40  1  0  0  0  0
 40 41  2  0  0  0  0
 41 42  1  0  0  0  0
 43 44  1  6  0  0  0
 43 45  1  0  0  0  0
 43 46  1  0  0  0  0
 45 46  1  0  0  0  0
 46 47  2  0  0  0  0
 48 49  2  0  0  0  0
 48 50  1  0  0  0  0
 50 51  1  0  0  0  0
 50 53  1  0  0  0  0
 51 52  2  0  0  0  0
M  END
$$$$