
 OpenBabel11272020513D

 54 62  0  0  1  0  0  0  0  0999 V2000
    3.6121    3.9239    7.2528 F   0  0  0  0  0  0  0  0  0  0  0  0
    3.0700    4.4806    6.1513 C   0  0  0  0  0  0  0  0  0  0  0  0
    2.7545    3.7468    5.0810 C   0  0  0  0  0  0  0  0  0  0  0  0
    3.0337    2.3947    5.0414 O   0  0  0  0  0  0  0  0  0  0  0  0
    2.0974    1.5738    4.3353 C   0  0  2  0  0  0  0  0  0  0  0  0
    2.4623    0.1826    4.3772 O   0  0  0  0  0  0  0  0  0  0  0  0
    2.4406   -0.4570    5.6114 C   0  0  0  0  0  0  0  0  0  0  0  0
    2.2498   -1.7906    5.7135 C   0  0  0  0  0  0  0  0  0  0  0  0
    2.3416   -2.4816    6.9284 O   0  0  0  0  0  0  0  0  0  0  0  0
    2.7019   -1.7973    8.0879 C   0  0  0  0  0  0  0  0  0  0  0  0
    2.8481   -0.4595    8.0902 C   0  0  0  0  0  0  0  0  0  0  0  0
    2.7169    0.3561    6.8454 C   0  0  0  0  0  0  0  0  0  0  0  0
    3.2050    0.3148    9.3242 C   0  0  3  0  0  0  0  0  0  0  0  0
    2.1487    1.1902    9.6304 O   0  0  0  0  0  0  0  0  0  0  0  0
    2.2871    1.9467   10.7662 C   0  0  0  0  0  0  0  0  0  0  0  0
    1.6538    2.9682   10.9215 O   0  0  0  0  0  0  0  0  0  0  0  0
    3.1522    1.4782   11.7132 O   0  0  0  0  0  0  0  0  0  0  0  0
    3.6229    0.2093   11.6852 C   0  0  0  0  0  0  0  0  0  0  0  0
    4.2879   -0.2753   12.5838 O   0  0  0  0  0  0  0  0  0  0  0  0
    3.3534   -0.5711   10.4809 C   0  0  0  0  0  0  0  0  0  0  0  0
    3.2506   -1.9162   10.4353 C   0  0  0  0  0  0  0  0  0  0  0  0
    2.9135   -2.5379    9.2325 O   0  3  0  0  0  0  0  0  0  0  0  0
    3.4270   -2.7919   11.6095 C   0  0  3  0  0  0  0  0  0  0  0  0
    2.7299   -4.0343   11.5930 N   0  0  0  0  0  0  0  0  0  0  0  0
    2.2728   -3.1547   12.3447 N   0  0  0  0  0  0  0  0  0  0  0  0
    1.9517   -2.6607    4.5528 C   0  0  0  0  0  0  0  0  0  0  0  0
    3.0446   -3.2503    4.0173 N   0  0  0  0  0  0  0  0  0  0  0  0
    2.8450   -4.0691    2.9635 C   0  0  0  0  0  0  0  0  0  0  0  0
    3.9271   -4.6212    2.3991 F   0  0  0  0  0  0  0  0  0  0  0  0
    1.6030   -4.3947    2.4551 C   0  0  0  0  0  0  0  0  0  0  0  0
    0.4674   -3.8225    3.0346 C   0  0  0  0  0  0  0  0  0  0  0  0
    0.6283   -2.9054    4.0984 C   0  0  0  0  0  0  0  0  0  0  0  0
   -0.5394   -2.3100    4.6285 C   0  0  0  0  0  0  0  0  0  0  0  0
   -1.8134   -2.6338    4.1319 C   0  0  0  0  0  0  0  0  0  0  0  0
   -2.9901   -1.9226    4.6383 C   0  0  0  0  0  0  0  0  0  0  0  0
   -2.8935   -1.0802    5.5163 O   0  0  0  0  0  0  0  0  0  0  0  0
   -4.3178   -2.2909    4.0207 C   0  0  0  0  0  0  0  0  0  0  0  0
   -5.2744   -1.5346    4.0899 O   0  0  0  0  0  0  0  0  0  0  0  0
   -4.3526   -3.6868    3.4469 C   0  0  1  0  0  0  0  0  0  0  0  0
   -3.1847   -4.0204    2.6759 O   0  0  0  0  0  0  0  0  0  0  0  0
   -1.9754   -3.5938    3.1467 C   0  0  0  0  0  0  0  0  0  0  0  0
   -0.8278   -4.1556    2.5853 C   0  0  0  0  0  0  0  0  0  0  0  0
   -0.9646   -5.0607    1.6021 F   0  0  0  0  0  0  0  0  0  0  0  0
   -4.6266   -4.7500    4.4885 C   0  0  1  0  0  0  0  0  0  0  0  0
   -4.6797   -6.1087    4.0142 O   0  0  0  0  0  0  0  0  0  0  0  0
   -3.9547   -4.5882    5.7385 O   0  0  0  0  0  0  0  0  0  0  0  0
   -5.3871   -4.4645    5.7730 C   0  0  3  0  0  0  0  0  0  0  0  0
   -6.0749   -5.5758    6.3654 O   0  0  0  0  0  0  0  0  0  0  0  0
    2.0075    2.0607    2.9013 C   0  0  0  0  0  0  0  0  0  0  0  0
    2.1825    1.4042    1.8887 O   0  0  0  0  0  0  0  0  0  0  0  0
    1.6203    3.5133    2.8474 C   0  0  0  0  0  0  0  0  0  0  0  0
    0.7946    3.8902    2.0332 O   0  0  0  0  0  0  0  0  0  0  0  0
    2.1420    4.4468    3.9209 C   0  0  0  0  0  0  0  0  0  0  0  0
    2.0295    5.6570    3.8415 O   0  0  0  0  0  0  0  0  0  0  0  0
  1  2  1  0  0  0  0
  2  3  2  0  0  0  0
  3  4  1  0  0  0  0
  3 53  1  0  0  0  0
  4  5  1  0  0  0  0
  5  6  1  6  0  0  0
  5 49  1  0  0  0  0
  6  7  1  0  0  0  0
  7  8  2  0  0  0  0
  7 12  1  0  0  0  0
  8  9  1  0  0  0  0
  8 26  1  0  0  0  0
  9 10  1  0  0  0  0
 10 11  2  0  0  0  0
 10 22  1  0  0  0  0
 11 12  1  0  0  0  0
 11 13  1  0  0  0  0
 13 14  1  0  0  0  0
 13 20  1  0  0  0  0
 14 15  1  0  0  0  0
 15 16  2  0  0  0  0
 15 17  1  0  0  0  0
 17 18  1  0  0  0  0
 18 19  2  0  0  0  0
 18 20  1  0  0  0  0
 20 21  2  0  0  0  0
 21 22  1  0  0  0  0
 21 23  1  0  0  0  0
 23 24  1  0  0  0  0
 23 25  1  0  0  0  0
 24 25  2  0  0  0  0
 26 27  2  0  0  0  0
 26 32  1  0  0  0  0
 27 28  1  0  0  0  0
 28 29  1  0  0  0  0
 28 30  2  0  0  0  0
 30 31  1  0  0  0  0
 31 32  2  0  0  0  0
 31 42  1  0  0  0  0
 32 33  1  0  0  0  0
 33 34  2  0  0  0  0
 34 35  1  0  0  0  0
 34 41  1  0  0  0  0
 35 36  2  0  0  0  0
 35 37  1  0  0  0  0
 37 38  2  0  0  0  0
 39 37  1  1  0  0  0
 39 40  1  0  0  0  0
 39 44  1  0  0  0  0
 40 41  1  0  0  0  0
 41 42  2  0  0  0  0
 42 43  1  0  0  0  0
 44 45  1  6  0  0  0
 44 46  1  0  0  0  0
 44 47  1  0  0  0  0
 46 47  1  0  0  0  0
 47 48  1  0  0  0  0
 49 50  2  0  0  0  0
 49 51  1  0  0  0  0
 51 52  2  0  0  0  0
 51 53  1  0  0  0  0
 53 54  2  0  0  0  0
M  CHG  1  22   1
M  END
$$$$