
 OpenBabel11242002003D

 54 62  0  0  1  0  0  0  0  0999 V2000
    3.9060    1.1545   -4.4543 O   0  0  0  0  0  0  0  0  0  0  0  0
    3.8996    0.4417   -3.2814 C   0  0  0  0  0  0  0  0  0  0  0  0
    3.2375   -0.7167   -3.1470 C   0  0  0  0  0  0  0  0  0  0  0  0
    2.4726   -1.2318   -4.1782 O   0  0  0  0  0  0  0  0  0  0  0  0
    2.8522   -2.5648   -4.4935 C   0  0  2  0  0  0  0  0  0  0  0  0
    2.1252   -3.0890   -5.6368 O   0  0  0  0  0  0  0  0  0  0  0  0
    2.2541   -2.4791   -6.8742 C   0  0  0  0  0  0  0  0  0  0  0  0
    2.0387   -3.1638   -8.0246 C   0  0  0  0  0  0  0  0  0  0  0  0
    2.1115   -2.5213   -9.2744 O   0  0  0  0  0  0  0  0  0  0  0  0
    2.3734   -1.1507   -9.3668 C   0  0  0  0  0  0  0  0  0  0  0  0
    2.5553   -0.4018   -8.2668 C   0  0  0  0  0  0  0  0  0  0  0  0
    2.5518   -0.9994   -6.8970 C   0  0  0  0  0  0  0  0  0  0  0  0
    2.7295    1.0890   -8.3250 C   0  0  3  0  0  0  0  0  0  0  0  0
    3.9704    1.4424   -7.7462 O   0  0  0  0  0  0  0  0  0  0  0  0
    4.1541    2.7869   -7.6050 C   0  0  0  0  0  0  0  0  0  0  0  0
    4.9089    3.2504   -6.7664 O   0  0  0  0  0  0  0  0  0  0  0  0
    3.3939    3.5512   -8.4319 O   0  0  0  0  0  0  0  0  0  0  0  0
    3.0504    3.0533   -9.7213 C   0  0  3  0  0  0  0  0  0  0  0  0
    2.7902    1.5833   -9.7161 C   0  0  0  0  0  0  0  0  0  0  0  0
    2.6467    0.7783  -10.7917 C   0  0  0  0  0  0  0  0  0  0  0  0
    2.4272   -0.5847  -10.6218 O   0  3  0  0  0  0  0  0  0  0  0  0
    2.7139    1.2404  -12.1993 C   0  0  0  0  0  0  0  0  0  0  0  0
    3.7231    0.7309  -13.0823 O   0  0  0  0  0  0  0  0  0  0  0  0
    2.3473    0.3485  -13.2699 O   0  0  0  0  0  0  0  0  0  0  0  0
    1.8193    3.6264  -10.1168 O   0  0  0  0  0  0  0  0  0  0  0  0
    1.6852   -4.6335   -8.0938 C   0  0  0  0  0  0  0  0  0  0  0  0
    0.8870   -5.1969   -7.0915 C   0  0  0  0  0  0  0  0  0  0  0  0
    0.5374   -6.4892   -7.1169 N   0  3  0  0  0  0  0  0  0  0  0  0
   -0.2007   -6.9880   -6.1066 F   0  0  0  0  0  0  0  0  0  0  0  0
    0.8709   -7.2945   -8.1014 N   0  0  0  0  0  0  0  0  0  0  0  0
    1.6136   -6.8388   -9.1098 C   0  0  0  0  0  0  0  0  0  0  0  0
    2.0763   -5.5048   -9.1528 C   0  0  0  0  0  0  0  0  0  0  0  0
    2.9028   -5.1513  -10.2497 C   0  0  0  0  0  0  0  0  0  0  0  0
    3.1889   -6.0503  -11.2897 C   0  0  0  0  0  0  0  0  0  0  0  0
    3.9981   -5.6102  -12.4303 C   0  0  0  0  0  0  0  0  0  0  0  0
    4.4643   -4.4800  -12.4447 O   0  0  0  0  0  0  0  0  0  0  0  0
    4.1685   -6.5903  -13.5717 C   0  0  0  0  0  0  0  0  0  0  0  0
    5.0039   -6.3882  -14.4384 O   0  0  0  0  0  0  0  0  0  0  0  0
    3.1799   -7.7364  -13.5529 C   0  0  1  0  0  0  0  0  0  0  0  0
    2.9091   -8.2593  -12.2399 O   0  0  0  0  0  0  0  0  0  0  0  0
    2.6920   -7.3358  -11.2583 C   0  0  0  0  0  0  0  0  0  0  0  0
    1.9347   -7.7162  -10.1511 C   0  0  0  0  0  0  0  0  0  0  0  0
    1.4650   -8.9732  -10.0973 F   0  0  0  0  0  0  0  0  0  0  0  0
    1.8885   -7.3517  -14.2212 C   0  0  1  0  0  0  0  0  0  0  0  0
    1.1594   -6.2440  -13.6429 O   0  0  0  0  0  0  0  0  0  0  0  0
    1.9009   -7.3824  -15.6487 O   0  0  0  0  0  0  0  0  0  0  0  0
    1.0858   -8.3602  -14.9995 C   0  0  3  0  0  0  0  0  0  0  0  0
   -0.2834   -8.1605  -15.0340 F   0  0  0  0  0  0  0  0  0  0  0  0
    2.5096   -3.4927   -3.3380 C   0  0  0  0  0  0  0  0  0  0  0  0
    2.1615   -4.6596   -3.4807 O   0  0  0  0  0  0  0  0  0  0  0  0
    2.6375   -2.8377   -1.9727 C   0  0  0  0  0  0  0  0  0  0  0  0
    2.1653   -3.3837   -0.9905 O   0  0  0  0  0  0  0  0  0  0  0  0
    3.3105   -1.4775   -1.8702 C   0  0  0  0  0  0  0  0  0  0  0  0
    3.8889   -1.1010   -0.8701 O   0  0  0  0  0  0  0  0  0  0  0  0
  1  2  1  0  0  0  0
  2  3  2  0  0  0  0
  3  4  1  0  0  0  0
  3 53  1  0  0  0  0
  4  5  1  0  0  0  0
  5  6  1  6  0  0  0
  5 49  1  0  0  0  0
  6  7  1  0  0  0  0
  7  8  2  0  0  0  0
  7 12  1  0  0  0  0
  8  9  1  0  0  0  0
  8 26  1  0  0  0  0
  9 10  1  0  0  0  0
 10 11  2  0  0  0  0
 10 21  1  0  0  0  0
 11 12  1  0  0  0  0
 11 13  1  0  0  0  0
 13 14  1  0  0  0  0
 13 19  1  0  0  0  0
 14 15  1  0  0  0  0
 15 16  2  0  0  0  0
 15 17  1  0  0  0  0
 17 18  1  0  0  0  0
 18 19  1  0  0  0  0
 18 25  1  0  0  0  0
 19 20  2  0  0  0  0
 20 21  1  0  0  0  0
 20 22  1  0  0  0  0
 22 23  1  0  0  0  0
 22 24  1  0  0  0  0
 23 24  1  0  0  0  0
 26 27  2  0  0  0  0
 26 32  1  0  0  0  0
 27 28  1  0  0  0  0
 28 29  1  0  0  0  0
 28 30  2  0  0  0  0
 30 31  1  0  0  0  0
 31 32  2  0  0  0  0
 31 42  1  0  0  0  0
 32 33  1  0  0  0  0
 33 34  2  0  0  0  0
 34 35  1  0  0  0  0
 34 41  1  0  0  0  0
 35 36  2  0  0  0  0
 35 37  1  0  0  0  0
 37 38  2  0  0  0  0
 39 37  1  1  0  0  0
 39 40  1  0  0  0  0
 39 44  1  0  0  0  0
 40 41  1  0  0  0  0
 41 42  2  0  0  0  0
 42 43  1  0  0  0  0
 44 45  1  1  0  0  0
 44 46  1  0  0  0  0
 44 47  1  0  0  0  0
 46 47  1  0  0  0  0
 47 48  1  0  0  0  0
 49 50  2  0  0  0  0
 49 51  1  0  0  0  0
 51 52  2  0  0  0  0
 51 53  1  0  0  0  0
 53 54  2  0  0  0  0
M  CHG  2  21   1  28   1
M  END
$$$$