
 OpenBabel11222002273D

 54 63  0  0  1  0  0  0  0  0999 V2000
    2.2948    6.5148   -5.4199 O   0  0  0  0  0  0  0  0  0  0  0  0
    2.1884    5.1453   -5.4382 C   0  0  0  0  0  0  0  0  0  0  0  0
    2.5558    4.3807   -4.4044 C   0  0  0  0  0  0  0  0  0  0  0  0
    3.1377    4.9351   -3.2777 O   0  0  0  0  0  0  0  0  0  0  0  0
    2.5861    4.4354   -2.0642 C   0  0  2  0  0  0  0  0  0  0  0  0
    3.2407    5.0599   -0.9287 O   0  0  0  0  0  0  0  0  0  0  0  0
    3.1981    6.4484   -0.8634 C   0  0  0  0  0  0  0  0  0  0  0  0
    4.2001    7.1554   -0.2932 C   0  0  0  0  0  0  0  0  0  0  0  0
    4.1679    8.5479   -0.1616 O   0  0  0  0  0  0  0  0  0  0  0  0
    3.0730    9.2645   -0.6664 C   0  0  0  0  0  0  0  0  0  0  0  0
    2.0270    8.6335   -1.2325 C   0  0  0  0  0  0  0  0  0  0  0  0
    1.9667    7.1443   -1.3825 C   0  0  0  0  0  0  0  0  0  0  0  0
    0.8578    9.3784   -1.8160 C   0  0  3  0  0  0  0  0  0  0  0  0
   -0.3079    9.0072   -1.0993 O   0  0  0  0  0  0  0  0  0  0  0  0
   -1.4667    9.5349   -1.5813 C   0  0  0  0  0  0  0  0  0  0  0  0
   -2.5566    9.0190   -1.3471 O   0  0  0  0  0  0  0  0  0  0  0  0
   -1.3228   10.6222   -2.3621 O   0  0  0  0  0  0  0  0  0  0  0  0
   -0.2320   11.5291   -2.1410 C   0  0  3  0  0  0  0  0  0  0  0  0
    0.9862   10.8354   -1.6342 C   0  0  0  0  0  0  0  0  0  0  0  0
    2.0604   11.4201   -1.0534 C   0  0  0  0  0  0  0  0  0  0  0  0
    3.1042   10.6406   -0.5731 O   0  3  0  0  0  0  0  0  0  0  0  0
    2.1921   12.8829   -0.8696 C   0  0  0  0  0  0  0  0  0  0  0  0
    1.7270   13.5167    0.3285 O   0  0  0  0  0  0  0  0  0  0  0  0
    3.1411   13.4159    0.0705 O   0  0  0  0  0  0  0  0  0  0  0  0
    0.1632   12.0517   -3.4038 O   0  0  0  0  0  0  0  0  0  0  0  0
    5.4147    6.4959    0.2502 C   0  0  0  0  0  0  0  0  0  0  0  0
    5.3910    6.0198    1.5605 C   0  0  0  0  0  0  0  0  0  0  0  0
    6.4229    5.3251    2.0557 N   0  3  0  0  0  0  0  0  0  0  0  0
    6.3899    4.9189    3.3397 F   0  0  0  0  0  0  0  0  0  0  0  0
    7.4767    5.0091    1.3326 N   0  0  0  0  0  0  0  0  0  0  0  0
    7.5571    5.4199    0.0647 C   0  0  0  0  0  0  0  0  0  0  0  0
    6.5653    6.2264   -0.5250 C   0  0  0  0  0  0  0  0  0  0  0  0
    6.7847    6.7044   -1.8435 C   0  0  0  0  0  0  0  0  0  0  0  0
    7.9155    6.3416   -2.6024 C   0  0  0  0  0  0  0  0  0  0  0  0
    8.2504    6.9005   -4.0170 C   0  0  3  0  0  0  0  0  0  0  0  0
    7.2550    6.5357   -5.0467 N   0  0  0  0  0  0  0  0  0  0  0  0
    8.3168    6.0805   -5.9401 N   0  0  0  0  0  0  0  0  0  0  0  0
    9.2971    6.0913   -4.8278 C   0  0  3  0  0  0  0  0  0  0  0  0
    9.6109    4.7302   -4.1725 C   0  0  1  0  0  0  0  0  0  0  0  0
    9.8452    4.8916   -2.7392 O   0  0  0  0  0  0  0  0  0  0  0  0
    8.7953    5.4196   -2.0258 C   0  0  0  0  0  0  0  0  0  0  0  0
    8.6431    5.0192   -0.7023 C   0  0  0  0  0  0  0  0  0  0  0  0
    9.5590    4.2042   -0.1540 F   0  0  0  0  0  0  0  0  0  0  0  0
    8.6348    3.5964   -4.4481 C   0  0  1  0  0  0  0  0  0  0  0  0
    7.2663    3.7245   -3.9820 O   0  0  0  0  0  0  0  0  0  0  0  0
    8.7856    2.9982   -5.7415 O   0  0  0  0  0  0  0  0  0  0  0  0
    9.1059    2.1616   -4.6319 C   0  0  3  0  0  0  0  0  0  0  0  0
    8.1192    1.1468   -4.3655 O   0  0  0  0  0  0  0  0  0  0  0  0
    2.7421    2.9272   -1.9147 C   0  0  0  0  0  0  0  0  0  0  0  0
    2.7407    2.3321   -0.8466 O   0  0  0  0  0  0  0  0  0  0  0  0
    2.8543    2.2019   -3.2370 C   0  0  0  0  0  0  0  0  0  0  0  0
    3.4040    1.1164   -3.3038 O   0  0  0  0  0  0  0  0  0  0  0  0
    2.3639    2.9068   -4.4835 C   0  0  0  0  0  0  0  0  0  0  0  0
    1.8261    2.3202   -5.4026 O   0  0  0  0  0  0  0  0  0  0  0  0
  1  2  1  0  0  0  0
  2  3  2  0  0  0  0
  3  4  1  0  0  0  0
  3 53  1  0  0  0  0
  4  5  1  0  0  0  0
  5  6  1  1  0  0  0
  5 49  1  0  0  0  0
  6  7  1  0  0  0  0
  7  8  2  0  0  0  0
  7 12  1  0  0  0  0
  8  9  1  0  0  0  0
  8 26  1  0  0  0  0
  9 10  1  0  0  0  0
 10 11  2  0  0  0  0
 10 21  1  0  0  0  0
 11 12  1  0  0  0  0
 11 13  1  0  0  0  0
 13 14  1  0  0  0  0
 13 19  1  0  0  0  0
 14 15  1  0  0  0  0
 15 16  2  0  0  0  0
 15 17  1  0  0  0  0
 17 18  1  0  0  0  0
 18 19  1  0  0  0  0
 18 25  1  0  0  0  0
 19 20  2  0  0  0  0
 20 21  1  0  0  0  0
 20 22  1  0  0  0  0
 22 23  1  0  0  0  0
 22 24  1  0  0  0  0
 23 24  1  0  0  0  0
 26 27  2  0  0  0  0
 26 32  1  0  0  0  0
 27 28  1  0  0  0  0
 28 29  1  0  0  0  0
 28 30  2  0  0  0  0
 30 31  1  0  0  0  0
 31 32  2  0  0  0  0
 31 42  1  0  0  0  0
 32 33  1  0  0  0  0
 33 34  2  0  0  0  0
 34 35  1  0  0  0  0
 34 41  1  0  0  0  0
 35 36  1  0  0  0  0
 35 38  1  0  0  0  0
 36 37  1  0  0  0  0
 37 38  1  0  0  0  0
 38 39  1  0  0  0  0
 39 40  1  1  0  0  0
 39 44  1  0  0  0  0
 40 41  1  0  0  0  0
 41 42  2  0  0  0  0
 42 43  1  0  0  0  0
 44 45  1  1  0  0  0
 44 46  1  0  0  0  0
 44 47  1  0  0  0  0
 46 47  1  0  0  0  0
 47 48  1  0  0  0  0
 49 50  2  0  0  0  0
 49 51  1  0  0  0  0
 51 52  2  0  0  0  0
 51 53  1  0  0  0  0
 53 54  2  0  0  0  0
M  CHG  2  21   1  28   1
M  END
$$$$