
 OpenBabel09232009353D

 51 59  0  0  1  0  0  0  0  0999 V2000
    6.0354    3.4731   -6.9627 O   0  0  0  0  0  0  0  0  0  0  0  0
    5.4423    2.2639   -7.1825 C   0  0  0  0  0  0  0  0  0  0  0  0
    4.5416    1.7631   -6.3295 C   0  0  0  0  0  0  0  0  0  0  0  0
    4.2120    2.4504   -5.1736 O   0  0  0  0  0  0  0  0  0  0  0  0
    2.8524    2.3138   -4.7275 C   0  0  2  0  0  0  0  0  0  0  0  0
    2.5643    3.1167   -3.5790 O   0  0  0  0  0  0  0  0  0  0  0  0
    2.6946    4.4860   -3.7467 C   0  0  0  0  0  0  0  0  0  0  0  0
    1.9510    5.3629   -3.0285 C   0  0  0  0  0  0  0  0  0  0  0  0
    2.0837    6.7548   -3.1601 O   0  0  0  0  0  0  0  0  0  0  0  0
    3.0475    7.2287   -4.0468 C   0  0  0  0  0  0  0  0  0  0  0  0
    3.8247    6.3372   -4.7730 C   0  0  0  0  0  0  0  0  0  0  0  0
    3.6546    4.9619   -4.6089 N   0  0  0  0  0  0  0  0  0  0  0  0
    4.8310    6.8711   -5.5720 C   0  0  0  0  0  0  0  0  0  0  0  0
    5.7290    6.0211   -6.2261 N   0  0  0  0  0  0  0  0  0  0  0  0
    6.7609    6.4257   -7.0062 C   0  0  0  0  0  0  0  0  0  0  0  0
    7.5116    5.6214   -7.5542 O   0  0  0  0  0  0  0  0  0  0  0  0
    6.9243    7.7588   -7.1565 N   0  0  0  0  0  0  0  0  0  0  0  0
    5.9916    8.7592   -6.6944 C   0  0  0  0  0  0  0  0  0  0  0  0
    4.9599    8.2470   -5.7334 C   0  0  0  0  0  0  0  0  0  0  0  0
    4.0686    9.0853   -5.0388 C   0  0  0  0  0  0  0  0  0  0  0  0
    3.1399    8.5665   -4.1785 N   0  0  0  0  0  0  0  0  0  0  0  0
    4.0723   10.5854   -5.2396 C   0  0  0  0  0  0  0  0  0  0  0  0
    3.1483   11.3731   -4.4713 O   0  0  0  0  0  0  0  0  0  0  0  0
    4.5584   11.4003   -4.1654 O   0  0  0  0  0  0  0  0  0  0  0  0
    0.9095    4.9442   -2.0748 C   0  0  0  0  0  0  0  0  0  0  0  0
   -0.3222    4.8258   -2.6198 N   0  0  0  0  0  0  0  0  0  0  0  0
   -1.2900    4.4228   -1.7916 C   0  0  0  0  0  0  0  0  0  0  0  0
   -1.1436    4.1119   -0.4975 N   0  0  0  0  0  0  0  0  0  0  0  0
    0.0804    4.2298    0.0238 C   0  0  0  0  0  0  0  0  0  0  0  0
    1.1837    4.6700   -0.7229 C   0  0  0  0  0  0  0  0  0  0  0  0
    2.4431    4.8017   -0.0850 C   0  0  0  0  0  0  0  0  0  0  0  0
    2.5904    4.4672    1.2650 C   0  0  0  0  0  0  0  0  0  0  0  0
    1.5100    3.9828    1.9857 C   0  0  0  0  0  0  0  0  0  0  0  0
    0.2640    3.8921    1.3614 C   0  0  0  0  0  0  0  0  0  0  0  0
    1.5581    3.5888    3.2921 O   0  0  0  0  0  0  0  0  0  0  0  0
    2.8538    3.3430    3.8531 C   0  0  2  0  0  0  0  0  0  0  0  0
    3.9426    4.2824    3.3992 C   0  0  0  0  0  0  0  0  0  0  0  0
    4.8538    4.6838    4.1093 O   0  0  0  0  0  0  0  0  0  0  0  0
    3.8826    4.6427    1.9352 C   0  0  0  0  0  0  0  0  0  0  0  0
    4.8679    5.0578    1.3468 O   0  0  0  0  0  0  0  0  0  0  0  0
    3.2565    1.9103    3.6466 C   0  0  1  0  0  0  0  0  0  0  0  0
    3.3468    1.4418    2.2849 O   0  0  0  0  0  0  0  0  0  0  0  0
    4.3047    1.4188    4.4888 O   0  0  0  0  0  0  0  0  0  0  0  0
    3.0659    0.9298    4.7127 C   0  0  0  0  0  0  0  0  0  0  0  0
    2.4048    0.9325    5.7168 O   0  0  0  0  0  0  0  0  0  0  0  0
    2.6284    0.8450   -4.4369 C   0  0  0  0  0  0  0  0  0  0  0  0
    2.3145    0.3334   -3.3748 O   0  0  0  0  0  0  0  0  0  0  0  0
    2.8602    0.0140   -5.6697 C   0  0  0  0  0  0  0  0  0  0  0  0
    2.1187   -0.9203   -5.9260 O   0  0  0  0  0  0  0  0  0  0  0  0
    3.9387    0.4413   -6.6438 C   0  0  0  0  0  0  0  0  0  0  0  0
    4.2426   -0.2336   -7.6127 O   0  0  0  0  0  0  0  0  0  0  0  0
  1  2  1  0  0  0  0
  2  3  2  0  0  0  0
  3  4  1  0  0  0  0
  3 50  1  0  0  0  0
  4  5  1  0  0  0  0
  5  6  1  1  0  0  0
  5 46  1  0  0  0  0
  6  7  1  0  0  0  0
  7  8  2  0  0  0  0
  7 12  1  0  0  0  0
  8  9  1  0  0  0  0
  8 25  1  0  0  0  0
  9 10  1  0  0  0  0
 10 11  2  0  0  0  0
 10 21  1  0  0  0  0
 11 12  1  0  0  0  0
 11 13  1  0  0  0  0
 13 14  1  0  0  0  0
 13 19  2  0  0  0  0
 14 15  1  0  0  0  0
 15 16  2  0  0  0  0
 15 17  1  0  0  0  0
 17 18  1  0  0  0  0
 18 19  1  0  0  0  0
 19 20  1  0  0  0  0
 20 21  2  0  0  0  0
 20 22  1  0  0  0  0
 22 23  1  0  0  0  0
 22 24  1  0  0  0  0
 23 24  1  0  0  0  0
 25 26  2  0  0  0  0
 25 30  1  0  0  0  0
 26 27  1  0  0  0  0
 27 28  2  0  0  0  0
 28 29  1  0  0  0  0
 29 30  2  0  0  0  0
 29 34  1  0  0  0  0
 30 31  1  0  0  0  0
 31 32  2  0  0  0  0
 32 33  1  0  0  0  0
 32 39  1  0  0  0  0
 33 34  2  0  0  0  0
 33 35  1  0  0  0  0
 36 35  1  6  0  0  0
 36 37  1  0  0  0  0
 36 41  1  0  0  0  0
 37 38  2  0  0  0  0
 37 39  1  0  0  0  0
 39 40  2  0  0  0  0
 41 42  1  6  0  0  0
 41 43  1  0  0  0  0
 41 44  1  0  0  0  0
 43 44  1  0  0  0  0
 44 45  2  0  0  0  0
 46 47  2  0  0  0  0
 46 48  1  0  0  0  0
 48 49  2  0  0  0  0
 48 50  1  0  0  0  0
 50 51  2  0  0  0  0
M  END
$$$$