
 OpenBabel11232015073D

 53 61  0  0  1  0  0  0  0  0999 V2000
    7.1560    2.5088    5.0686 O   0  0  0  0  0  0  0  0  0  0  0  0
    6.7298    3.0692    3.8922 C   0  0  0  0  0  0  0  0  0  0  0  0
    5.6470    2.6329    3.2407 C   0  0  0  0  0  0  0  0  0  0  0  0
    4.9078    1.5620    3.7183 O   0  0  0  0  0  0  0  0  0  0  0  0
    3.5064    1.8009    3.6077 C   0  0  2  0  0  0  0  0  0  0  0  0
    2.7497    0.7608    4.2474 O   0  0  0  0  0  0  0  0  0  0  0  0
    2.9796    0.5817    5.6040 C   0  0  0  0  0  0  0  0  0  0  0  0
    2.9129   -0.6511    6.1429 C   0  0  0  0  0  0  0  0  0  0  0  0
    3.0678   -0.9131    7.4914 O   0  0  0  0  0  0  0  0  0  0  0  0
    3.2613    0.1536    8.3566 C   0  0  0  0  0  0  0  0  0  0  0  0
    3.2985    1.4299    7.9321 C   0  0  0  0  0  0  0  0  0  0  0  0
    3.2043    1.7885    6.4821 C   0  0  0  0  0  0  0  0  0  0  0  0
    3.5061    2.5549    8.9158 C   0  0  3  0  0  0  0  0  0  0  0  0
    2.3422    3.4300    8.8553 N   0  0  0  0  0  0  0  0  0  0  0  0
    2.3352    4.4926    9.6979 C   0  0  0  0  0  0  0  0  0  0  0  0
    1.8786    5.6421    9.3593 N   0  0  0  0  0  0  0  0  0  0  0  0
    2.7706    4.2482   10.9500 N   0  0  0  0  0  0  0  0  0  0  0  0
    3.7808    3.2719   11.2814 C   0  0  0  0  0  0  0  0  0  0  0  0
    3.6488    2.1103   10.3479 C   0  0  0  0  0  0  0  0  0  0  0  0
    3.6126    0.8011   10.6835 C   0  0  0  0  0  0  0  0  0  0  0  0
    3.4246   -0.1412    9.6831 N   0  0  0  0  0  0  0  0  0  0  0  0
    3.7503    0.2719   12.0596 C   0  0  0  0  0  0  0  0  0  0  0  0
    2.6187    0.1231   12.9284 O   0  0  0  0  0  0  0  0  0  0  0  0
    3.2857   -1.0447   12.4115 O   0  0  0  0  0  0  0  0  0  0  0  0
    2.6356   -1.8269    5.3112 C   0  0  0  0  0  0  0  0  0  0  0  0
    1.3072   -2.1341    5.0480 C   0  0  0  0  0  0  0  0  0  0  0  0
    0.9985   -3.1098    4.1909 N   0  3  0  0  0  0  0  0  0  0  0  0
   -0.2978   -3.3905    3.9592 F   0  0  0  0  0  0  0  0  0  0  0  0
    1.9179   -3.7978    3.5354 N   0  0  0  0  0  0  0  0  0  0  0  0
    3.2158   -3.5394    3.7465 C   0  0  0  0  0  0  0  0  0  0  0  0
    3.6409   -2.5711    4.6704 C   0  0  0  0  0  0  0  0  0  0  0  0
    5.0285   -2.3904    4.8947 C   0  0  0  0  0  0  0  0  0  0  0  0
    5.9727   -3.1298    4.1742 C   0  0  0  0  0  0  0  0  0  0  0  0
    7.4074   -3.0027    4.4695 C   0  0  0  0  0  0  0  0  0  0  0  0
    7.8200   -2.2742    5.3548 O   0  0  0  0  0  0  0  0  0  0  0  0
    8.3310   -3.8609    3.6337 C   0  0  0  0  0  0  0  0  0  0  0  0
    9.4155   -4.2273    4.0569 O   0  0  0  0  0  0  0  0  0  0  0  0
    7.7645   -4.2047    2.2780 C   0  0  1  0  0  0  0  0  0  0  0  0
    6.4085   -4.6810    2.3494 O   0  0  0  0  0  0  0  0  0  0  0  0
    5.5598   -4.0059    3.1837 C   0  0  0  0  0  0  0  0  0  0  0  0
    4.1889   -4.2227    3.0149 C   0  0  0  0  0  0  0  0  0  0  0  0
    3.7866   -5.1132    2.0931 F   0  0  0  0  0  0  0  0  0  0  0  0
    7.8816   -3.0450    1.3379 C   0  0  1  0  0  0  0  0  0  0  0  0
    7.2315   -1.8091    1.7390 O   0  0  0  0  0  0  0  0  0  0  0  0
    9.1661   -2.8976    0.7408 O   0  0  0  0  0  0  0  0  0  0  0  0
    8.1458   -3.1738   -0.0952 C   0  0  0  0  0  0  0  0  0  0  0  0
    7.7008   -2.5091   -1.0140 O   0  0  0  0  0  0  0  0  0  0  0  0
    3.1155    1.8118    2.1393 C   0  0  0  0  0  0  0  0  0  0  0  0
    2.1418    1.2485    1.6619 O   0  0  0  0  0  0  0  0  0  0  0  0
    4.0756    2.6177    1.2908 C   0  0  0  0  0  0  0  0  0  0  0  0
    3.9414    2.6692    0.0809 O   0  0  0  0  0  0  0  0  0  0  0  0
    5.2371    3.3110    1.9785 C   0  0  0  0  0  0  0  0  0  0  0  0
    5.7255    4.3413    1.5542 O   0  0  0  0  0  0  0  0  0  0  0  0
  1  2  1  0  0  0  0
  2  3  2  0  0  0  0
  3  4  1  0  0  0  0
  3 52  1  0  0  0  0
  4  5  1  0  0  0  0
  5  6  1  1  0  0  0
  5 48  1  0  0  0  0
  6  7  1  0  0  0  0
  7  8  2  0  0  0  0
  7 12  1  0  0  0  0
  8  9  1  0  0  0  0
  8 25  1  0  0  0  0
  9 10  1  0  0  0  0
 10 11  2  0  0  0  0
 10 21  1  0  0  0  0
 11 12  1  0  0  0  0
 11 13  1  0  0  0  0
 13 14  1  0  0  0  0
 13 19  1  0  0  0  0
 14 15  1  0  0  0  0
 15 16  2  0  0  0  0
 15 17  1  0  0  0  0
 17 18  1  0  0  0  0
 18 19  1  0  0  0  0
 19 20  2  0  0  0  0
 20 21  1  0  0  0  0
 20 22  1  0  0  0  0
 22 23  1  0  0  0  0
 22 24  1  0  0  0  0
 23 24  1  0  0  0  0
 25 26  2  0  0  0  0
 25 31  1  0  0  0  0
 26 27  1  0  0  0  0
 27 28  1  0  0  0  0
 27 29  2  0  0  0  0
 29 30  1  0  0  0  0
 30 31  2  0  0  0  0
 30 41  1  0  0  0  0
 31 32  1  0  0  0  0
 32 33  2  0  0  0  0
 33 34  1  0  0  0  0
 33 40  1  0  0  0  0
 34 35  2  0  0  0  0
 34 36  1  0  0  0  0
 36 37  2  0  0  0  0
 38 36  1  1  0  0  0
 38 39  1  0  0  0  0
 38 43  1  0  0  0  0
 39 40  1  0  0  0  0
 40 41  2  0  0  0  0
 41 42  1  0  0  0  0
 43 44  1  1  0  0  0
 43 45  1  0  0  0  0
 43 46  1  0  0  0  0
 45 46  1  0  0  0  0
 46 47  2  0  0  0  0
 48 49  2  0  0  0  0
 48 50  1  0  0  0  0
 50 51  2  0  0  0  0
 50 52  1  0  0  0  0
 52 53  2  0  0  0  0
M  CHG  1  27   1
M  END
$$$$