
 OpenBabel11242002443D

 54 62  0  0  1  0  0  0  0  0999 V2000
    2.5710    1.3946   -3.9948 P   0  0  0  0  0  0  0  0  0  0  0  0
    3.2658    0.8556   -2.6268 C   0  0  0  0  0  0  0  0  0  0  0  0
    3.8440    0.4084   -1.5525 C   0  0  0  0  0  0  0  0  0  0  0  0
    4.6004   -0.7351   -1.7281 O   0  0  0  0  0  0  0  0  0  0  0  0
    5.5577   -1.0082   -0.7100 C   0  0  2  0  0  0  0  0  0  0  0  0
    6.1780   -2.2933   -0.9294 O   0  0  0  0  0  0  0  0  0  0  0  0
    6.8726   -2.4573   -2.1203 C   0  0  0  0  0  0  0  0  0  0  0  0
    6.9668   -3.6719   -2.7010 C   0  0  0  0  0  0  0  0  0  0  0  0
    7.7121   -3.9021   -3.8615 O   0  0  0  0  0  0  0  0  0  0  0  0
    8.4951   -2.8670   -4.3957 C   0  0  0  0  0  0  0  0  0  0  0  0
    8.5110   -1.6425   -3.8349 C   0  0  0  0  0  0  0  0  0  0  0  0
    7.6304   -1.2793   -2.6760 C   0  0  0  0  0  0  0  0  0  0  0  0
    9.4220   -0.5466   -4.3256 C   0  0  3  0  0  0  0  0  0  0  0  0
   10.3561   -0.3005   -3.2870 O   0  0  0  0  0  0  0  0  0  0  0  0
   11.3880    0.5547   -3.5217 C   0  0  0  0  0  0  0  0  0  0  0  0
   12.0713    0.9822   -2.6062 O   0  0  0  0  0  0  0  0  0  0  0  0
   11.6214    0.8741   -4.8168 O   0  0  0  0  0  0  0  0  0  0  0  0
   11.0947    0.1509   -5.9221 C   0  0  3  0  0  0  0  0  0  0  0  0
   10.2111   -0.9684   -5.5028 C   0  0  0  0  0  0  0  0  0  0  0  0
   10.1179   -2.1991   -6.0512 C   0  0  0  0  0  0  0  0  0  0  0  0
    9.2683   -3.1503   -5.5006 O   0  3  0  0  0  0  0  0  0  0  0  0
   10.9101   -2.6408   -7.2213 C   0  0  0  0  0  0  0  0  0  0  0  0
   12.1845   -3.2741   -7.0474 O   0  0  0  0  0  0  0  0  0  0  0  0
   11.0564   -4.0446   -7.5067 O   0  0  0  0  0  0  0  0  0  0  0  0
   10.2678    1.0067   -6.6829 O   0  0  0  0  0  0  0  0  0  0  0  0
    6.3858   -4.8786   -2.0613 C   0  0  0  0  0  0  0  0  0  0  0  0
    7.2031   -5.5857   -1.1799 C   0  0  0  0  0  0  0  0  0  0  0  0
    6.7327   -6.6328   -0.4944 N   0  3  0  0  0  0  0  0  0  0  0  0
    7.5573   -7.2992    0.3365 F   0  0  0  0  0  0  0  0  0  0  0  0
    5.4862   -7.0431   -0.5965 N   0  0  0  0  0  0  0  0  0  0  0  0
    4.6378   -6.3947   -1.3975 C   0  0  0  0  0  0  0  0  0  0  0  0
    5.0410   -5.2951   -2.1843 C   0  0  0  0  0  0  0  0  0  0  0  0
    4.0751   -4.6800   -3.0175 C   0  0  0  0  0  0  0  0  0  0  0  0
    2.7389   -5.1186   -3.0198 C   0  0  0  0  0  0  0  0  0  0  0  0
    1.7397   -4.4543   -3.8588 C   0  0  0  0  0  0  0  0  0  0  0  0
    2.0874   -3.6239   -4.6825 O   0  0  0  0  0  0  0  0  0  0  0  0
    0.2917   -4.8464   -3.6527 C   0  0  0  0  0  0  0  0  0  0  0  0
   -0.5554   -4.5241   -4.4710 O   0  0  0  0  0  0  0  0  0  0  0  0
    0.0211   -5.6184   -2.3784 C   0  0  1  0  0  0  0  0  0  0  0  0
    1.0471   -6.5849   -2.0801 O   0  0  0  0  0  0  0  0  0  0  0  0
    2.3408   -6.1664   -2.2104 C   0  0  0  0  0  0  0  0  0  0  0  0
    3.3067   -6.8089   -1.4372 C   0  0  0  0  0  0  0  0  0  0  0  0
    2.9320   -7.8367   -0.6581 F   0  0  0  0  0  0  0  0  0  0  0  0
   -0.3045   -4.7106   -1.2130 C   0  0  1  0  0  0  0  0  0  0  0  0
   -1.4463   -3.8507   -1.3776 O   0  0  0  0  0  0  0  0  0  0  0  0
   -0.1704   -5.2995    0.0924 O   0  0  0  0  0  0  0  0  0  0  0  0
    0.6502   -4.2891   -0.2072 C   0  0  0  0  0  0  0  0  0  0  0  0
    1.8681   -4.1881   -0.2225 O   0  0  0  0  0  0  0  0  0  0  0  0
    4.9173   -0.9972    0.6625 C   0  0  0  0  0  0  0  0  0  0  0  0
    4.9339   -1.9068    1.4746 O   0  0  0  0  0  0  0  0  0  0  0  0
    4.2551    0.3250    0.9296 C   0  0  0  0  0  0  0  0  0  0  0  0
    4.3889    0.8591    2.0159 O   0  0  0  0  0  0  0  0  0  0  0  0
    3.5688    1.0222   -0.2265 C   0  0  0  0  0  0  0  0  0  0  0  0
    2.8728    2.0072   -0.0619 O   0  0  0  0  0  0  0  0  0  0  0  0
  1  2  2  0  0  0  0
  2  3  2  0  0  0  0
  3  4  1  0  0  0  0
  3 53  1  0  0  0  0
  4  5  1  0  0  0  0
  5  6  1  6  0  0  0
  5 49  1  0  0  0  0
  6  7  1  0  0  0  0
  7  8  2  0  0  0  0
  7 12  1  0  0  0  0
  8  9  1  0  0  0  0
  8 26  1  0  0  0  0
  9 10  1  0  0  0  0
 10 11  2  0  0  0  0
 10 21  1  0  0  0  0
 11 12  1  0  0  0  0
 11 13  1  0  0  0  0
 13 14  1  0  0  0  0
 13 19  1  0  0  0  0
 14 15  1  0  0  0  0
 15 16  2  0  0  0  0
 15 17  1  0  0  0  0
 17 18  1  0  0  0  0
 18 19  1  0  0  0  0
 18 25  1  0  0  0  0
 19 20  2  0  0  0  0
 20 21  1  0  0  0  0
 20 22  1  0  0  0  0
 22 23  1  0  0  0  0
 22 24  1  0  0  0  0
 23 24  1  0  0  0  0
 26 27  2  0  0  0  0
 26 32  1  0  0  0  0
 27 28  1  0  0  0  0
 28 29  1  0  0  0  0
 28 30  2  0  0  0  0
 30 31  1  0  0  0  0
 31 32  2  0  0  0  0
 31 42  1  0  0  0  0
 32 33  1  0  0  0  0
 33 34  2  0  0  0  0
 34 35  1  0  0  0  0
 34 41  1  0  0  0  0
 35 36  2  0  0  0  0
 35 37  1  0  0  0  0
 37 38  2  0  0  0  0
 39 37  1  6  0  0  0
 39 40  1  0  0  0  0
 39 44  1  0  0  0  0
 40 41  1  0  0  0  0
 41 42  2  0  0  0  0
 42 43  1  0  0  0  0
 44 45  1  6  0  0  0
 44 46  1  0  0  0  0
 44 47  1  0  0  0  0
 46 47  1  0  0  0  0
 47 48  2  0  0  0  0
 49 50  2  0  0  0  0
 49 51  1  0  0  0  0
 51 52  2  0  0  0  0
 51 53  1  0  0  0  0
 53 54  2  0  0  0  0
M  CHG  2  21   1  28   1
M  END
$$$$