
 OpenBabel10112019493D

 50 58  0  0  1  0  0  0  0  0999 V2000
    1.9245   -0.5099    0.8498 O   0  0  0  0  0  0  0  0  0  0  0  0
    3.1443   -0.4761    0.7551 C   0  0  0  0  0  0  0  0  0  0  0  0
    3.8408   -1.6673    0.7269 N   0  0  0  0  0  0  0  0  0  0  0  0
    5.1227   -1.6309    0.5980 C   0  0  0  0  0  0  0  0  0  0  0  0
    5.8808   -0.3830    0.4739 C   0  0  0  0  0  0  0  0  0  0  0  0
    5.0339    0.8262    0.5280 C   0  0  0  0  0  0  0  0  0  0  0  0
    3.7509    0.7602    0.6677 N   0  0  0  0  0  0  0  0  0  0  0  0
    5.7029    2.1468    0.3797 C   0  0  0  0  0  0  0  0  0  0  0  0
    4.8565    3.3705    0.3928 C   0  0  0  0  0  0  0  0  0  0  0  0
    5.5927    4.6100   -0.0597 C   0  0  0  0  0  0  0  0  0  0  0  0
    6.9375    4.5551   -0.2421 C   0  0  0  0  0  0  0  0  0  0  0  0
    7.6842    3.3774   -0.0719 O   0  0  0  0  0  0  0  0  0  0  0  0
    7.0259    2.1749    0.1703 C   0  0  0  0  0  0  0  0  0  0  0  0
    7.7666    1.0136    0.1539 N   0  0  0  0  0  0  0  0  0  0  0  0
    7.2134   -0.2566    0.3054 C   0  0  0  0  0  0  0  0  0  0  0  0
    8.1594   -1.3949    0.2354 C   0  0  0  0  0  0  0  0  0  0  0  0
    9.2603   -1.5162    1.1510 O   0  0  0  0  0  0  0  0  0  0  0  0
    8.1688   -2.4521    1.2097 O   0  0  0  0  0  0  0  0  0  0  0  0
    7.7778    5.7093   -0.6519 C   0  0  0  0  0  0  0  0  0  0  0  0
    8.3425    6.3912    0.3664 N   0  0  0  0  0  0  0  0  0  0  0  0
    9.1393    7.4105    0.0202 C   0  0  0  0  0  0  0  0  0  0  0  0
    9.4301    7.8061   -1.2289 N   0  0  0  0  0  0  0  0  0  0  0  0
    8.8835    7.1122   -2.2300 C   0  0  0  0  0  0  0  0  0  0  0  0
    8.0331    6.0163   -2.0016 C   0  0  0  0  0  0  0  0  0  0  0  0
    7.5202    5.3040   -3.1068 C   0  0  0  0  0  0  0  0  0  0  0  0
    7.8432    5.6883   -4.4101 C   0  0  0  0  0  0  0  0  0  0  0  0
    8.6980    6.7570   -4.6420 C   0  0  0  0  0  0  0  0  0  0  0  0
    9.1901    7.4712   -3.5455 C   0  0  0  0  0  0  0  0  0  0  0  0
    9.1136    7.1633   -5.8827 O   0  0  0  0  0  0  0  0  0  0  0  0
    8.8937    6.2501   -6.9716 C   0  0  2  0  0  0  0  0  0  0  0  0
    7.5753    5.5178   -6.9079 C   0  0  0  0  0  0  0  0  0  0  0  0
    6.8174    5.3491   -7.8513 O   0  0  0  0  0  0  0  0  0  0  0  0
    7.2617    4.9625   -5.5424 C   0  0  0  0  0  0  0  0  0  0  0  0
    6.5499    3.9831   -5.3923 O   0  0  0  0  0  0  0  0  0  0  0  0
   10.0247    5.2767   -7.0880 C   0  0  1  0  0  0  0  0  0  0  0  0
   10.2717    4.4293   -5.9385 O   0  0  0  0  0  0  0  0  0  0  0  0
   10.1111    4.6270   -8.3593 O   0  0  0  0  0  0  0  0  0  0  0  0
   11.1478    5.4190   -8.0166 C   0  0  0  0  0  0  0  0  0  0  0  0
   12.3122    5.1419   -7.8643 O   0  0  0  0  0  0  0  0  0  0  0  0
    4.8754    5.7959   -0.2050 O   0  0  0  0  0  0  0  0  0  0  0  0
    3.4769    5.7558   -0.5818 C   0  0  1  0  0  0  0  0  0  0  0  0
    2.6604    5.2041    0.4776 O   0  0  0  0  0  0  0  0  0  0  0  0
    1.3603    5.4978    0.5929 C   0  0  0  0  0  0  0  0  0  0  0  0
    0.7287    5.2392    1.6811 N   0  0  0  0  0  0  0  0  0  0  0  0
    0.7228    6.2183   -0.5727 C   0  0  0  0  0  0  0  0  0  0  0  0
   -0.3156    5.8428   -1.0821 O   0  0  0  0  0  0  0  0  0  0  0  0
    1.5566    7.3146   -1.1659 C   0  0  0  0  0  0  0  0  0  0  0  0
    1.0584    8.2476   -1.7681 O   0  0  0  0  0  0  0  0  0  0  0  0
    3.0493    7.1845   -0.9652 C   0  0  0  0  0  0  0  0  0  0  0  0
    3.7831    8.1471   -1.1256 O   0  0  0  0  0  0  0  0  0  0  0  0
  1  2  2  0  0  0  0
  2  3  1  0  0  0  0
  2  7  1  0  0  0  0
  3  4  2  0  0  0  0
  4  5  1  0  0  0  0
  5  6  1  0  0  0  0
  5 15  2  0  0  0  0
  6  7  2  0  0  0  0
  6  8  1  0  0  0  0
  8  9  1  0  0  0  0
  8 13  2  0  0  0  0
  9 10  1  0  0  0  0
 10 11  2  0  0  0  0
 10 40  1  0  0  0  0
 11 12  1  0  0  0  0
 11 19  1  0  0  0  0
 12 13  1  0  0  0  0
 13 14  1  0  0  0  0
 14 15  1  0  0  0  0
 15 16  1  0  0  0  0
 16 17  1  0  0  0  0
 16 18  1  0  0  0  0
 17 18  1  0  0  0  0
 19 20  2  0  0  0  0
 19 24  1  0  0  0  0
 20 21  1  0  0  0  0
 21 22  2  0  0  0  0
 22 23  1  0  0  0  0
 23 24  2  0  0  0  0
 23 28  1  0  0  0  0
 24 25  1  0  0  0  0
 25 26  2  0  0  0  0
 26 27  1  0  0  0  0
 26 33  1  0  0  0  0
 27 28  2  0  0  0  0
 27 29  1  0  0  0  0
 30 29  1  1  0  0  0
 30 31  1  0  0  0  0
 30 35  1  0  0  0  0
 31 32  2  0  0  0  0
 31 33  1  0  0  0  0
 33 34  2  0  0  0  0
 35 36  1  1  0  0  0
 35 37  1  0  0  0  0
 35 38  1  0  0  0  0
 37 38  1  0  0  0  0
 38 39  2  0  0  0  0
 41 40  1  1  0  0  0
 41 42  1  0  0  0  0
 41 49  1  0  0  0  0
 42 43  1  0  0  0  0
 43 44  2  0  0  0  0
 43 45  1  0  0  0  0
 45 46  2  0  0  0  0
 45 47  1  0  0  0  0
 47 48  2  0  0  0  0
 47 49  1  0  0  0  0
 49 50  2  0  0  0  0
M  END
$$$$