
 OpenBabel11252023563D

 54 63  0  0  1  0  0  0  0  0999 V2000
    2.8079   -7.1760  -15.0352 O   0  0  0  0  0  0  0  0  0  0  0  0
    1.8973   -6.4614  -15.7657 C   0  0  0  0  0  0  0  0  0  0  0  0
    1.7201   -5.1468  -15.6226 C   0  0  0  0  0  0  0  0  0  0  0  0
    2.3623   -4.4754  -14.5940 O   0  0  0  0  0  0  0  0  0  0  0  0
    1.9075   -3.1706  -14.3457 C   0  0  2  0  0  0  0  0  0  0  0  0
    0.8379   -2.9761  -13.3756 O   0  0  0  0  0  0  0  0  0  0  0  0
   -0.2807   -3.7406  -13.1341 C   0  0  0  0  0  0  0  0  0  0  0  0
   -1.3715   -3.2342  -12.5380 C   0  0  0  0  0  0  0  0  0  0  0  0
   -2.6268   -3.8893  -12.5990 O   0  0  0  0  0  0  0  0  0  0  0  0
   -2.7488   -5.1071  -13.2761 C   0  0  0  0  0  0  0  0  0  0  0  0
   -1.6353   -5.7850  -13.6794 C   0  0  0  0  0  0  0  0  0  0  0  0
   -0.3167   -5.1589  -13.5318 C   0  0  0  0  0  0  0  0  0  0  0  0
   -1.7995   -6.9878  -14.3625 C   0  0  0  0  0  0  0  0  0  0  0  0
   -0.6748   -7.6191  -14.9065 O   0  0  0  0  0  0  0  0  0  0  0  0
   -0.6890   -8.9619  -15.2892 C   0  0  0  0  0  0  0  0  0  0  0  0
    0.3404   -9.5293  -15.6342 O   0  0  0  0  0  0  0  0  0  0  0  0
   -1.8737   -9.5983  -15.1280 O   0  0  0  0  0  0  0  0  0  0  0  0
   -3.0668   -8.8415  -15.3074 C   0  0  3  0  0  0  0  0  0  0  0  0
   -3.0320   -7.5500  -14.5599 C   0  0  0  0  0  0  0  0  0  0  0  0
   -4.1341   -6.8296  -14.0924 C   0  0  0  0  0  0  0  0  0  0  0  0
   -3.9846   -5.6018  -13.4590 N   0  0  0  0  0  0  0  0  0  0  0  0
   -5.5241   -7.3915  -14.2531 C   0  0  0  0  0  0  0  0  0  0  0  0
   -5.9891   -8.2593  -13.2072 O   0  0  0  0  0  0  0  0  0  0  0  0
   -6.5439   -6.9361  -13.3557 O   0  0  0  0  0  0  0  0  0  0  0  0
   -3.2427   -8.5554  -16.6807 O   0  0  0  0  0  0  0  0  0  0  0  0
   -1.3700   -1.9911  -11.7122 C   0  0  0  0  0  0  0  0  0  0  0  0
   -2.5767   -1.2797  -11.6689 C   0  0  0  0  0  0  0  0  0  0  0  0
   -2.7452   -0.3030  -10.7808 N   0  3  0  0  0  0  0  0  0  0  0  0
   -3.9057    0.3829  -10.7676 F   0  0  0  0  0  0  0  0  0  0  0  0
   -1.8370   -0.0185   -9.8725 N   0  0  0  0  0  0  0  0  0  0  0  0
   -0.6618   -0.6751   -9.8808 C   0  0  0  0  0  0  0  0  0  0  0  0
   -0.3486   -1.6316  -10.8371 N   0  3  0  0  0  0  0  0  0  0  0  0
    0.9229   -2.1324  -10.8260 C   0  0  0  0  0  0  0  0  0  0  0  0
    1.8827   -1.8033   -9.9073 C   0  0  0  0  0  0  0  0  0  0  0  0
    1.5376   -1.0332   -8.8474 C   0  0  0  0  0  0  0  0  0  0  0  0
    0.2784   -0.4262   -8.8345 C   0  0  0  0  0  0  0  0  0  0  0  0
    0.0606    0.5831   -7.8820 N   0  0  0  0  0  0  0  0  0  0  0  0
    2.4165   -0.8844   -7.8038 O   0  0  0  0  0  0  0  0  0  0  0  0
    3.2058   -2.1018   -7.5737 C   0  0  1  0  0  0  0  0  0  0  0  0
    3.9678   -2.6227   -8.7322 C   0  0  0  0  0  0  0  0  0  0  0  0
    4.8779   -3.4250   -8.6717 O   0  0  0  0  0  0  0  0  0  0  0  0
    3.2490   -2.3108  -10.0321 C   0  0  0  0  0  0  0  0  0  0  0  0
    3.7045   -2.5059  -11.1427 O   0  0  0  0  0  0  0  0  0  0  0  0
    3.7355   -2.2763   -6.2953 O   0  0  0  0  0  0  0  0  0  0  0  0
    2.6543   -3.1729   -6.6710 C   0  0  1  0  0  0  0  0  0  0  0  0
    1.2665   -2.7671   -6.3743 O   0  0  0  0  0  0  0  0  0  0  0  0
    1.9154   -3.5003   -5.4502 C   0  0  0  0  0  0  0  0  0  0  0  0
    1.5973   -4.5181   -4.9569 O   0  0  0  0  0  0  0  0  0  0  0  0
    1.4728   -2.3152  -15.5179 C   0  0  0  0  0  0  0  0  0  0  0  0
    1.5280   -1.0839  -15.4458 O   0  0  0  0  0  0  0  0  0  0  0  0
    0.7962   -3.0330  -16.6480 C   0  0  3  0  0  0  0  0  0  0  0  0
    0.5849   -4.4776  -16.3733 C   0  0  0  0  0  0  0  0  0  0  0  0
   -0.4955   -5.0313  -16.5835 O   0  0  0  0  0  0  0  0  0  0  0  0
   -0.3858   -2.4120  -16.9409 F   0  0  0  0  0  0  0  0  0  0  0  0
  1  2  1  0  0  0  0
  2  3  2  0  0  0  0
  3  4  1  0  0  0  0
  3 52  1  0  0  0  0
  4  5  1  0  0  0  0
  5  6  1  1  0  0  0
  5 49  1  0  0  0  0
  6  7  1  0  0  0  0
  7  8  2  0  0  0  0
  7 12  1  0  0  0  0
  8  9  1  0  0  0  0
  8 26  1  0  0  0  0
  9 10  1  0  0  0  0
 10 11  2  0  0  0  0
 10 21  1  0  0  0  0
 11 12  1  0  0  0  0
 11 13  1  0  0  0  0
 13 14  1  0  0  0  0
 13 19  2  0  0  0  0
 14 15  1  0  0  0  0
 15 16  2  0  0  0  0
 15 17  1  0  0  0  0
 17 18  1  0  0  0  0
 18 19  1  0  0  0  0
 18 25  1  0  0  0  0
 19 20  1  0  0  0  0
 20 21  2  0  0  0  0
 20 22  1  0  0  0  0
 22 23  1  0  0  0  0
 22 24  1  0  0  0  0
 23 24  1  0  0  0  0
 26 27  2  0  0  0  0
 26 32  1  0  0  0  0
 27 28  1  0  0  0  0
 28 29  1  0  0  0  0
 28 30  2  0  0  0  0
 30 31  1  0  0  0  0
 31 32  2  0  0  0  0
 31 36  1  0  0  0  0
 32 33  1  0  0  0  0
 33 34  2  0  0  0  0
 34 35  1  0  0  0  0
 34 42  1  0  0  0  0
 35 36  2  0  0  0  0
 35 38  1  0  0  0  0
 36 37  1  0  0  0  0
 39 38  1  6  0  0  0
 39 40  1  0  0  0  0
 39 44  1  0  0  0  0
 39 45  1  0  0  0  0
 40 41  2  0  0  0  0
 40 42  1  0  0  0  0
 42 43  2  0  0  0  0
 45 44  1  1  0  0  0
 45 46  1  0  0  0  0
 45 47  1  0  0  0  0
 46 47  1  0  0  0  0
 47 48  2  0  0  0  0
 49 50  2  0  0  0  0
 49 51  1  0  0  0  0
 51 52  1  0  0  0  0
 51 54  1  0  0  0  0
 52 53  2  0  0  0  0
M  CHG  2  28   1  32   1
M  END
$$$$