
 OpenBabel11272002463D

 54 62  0  0  1  0  0  0  0  0999 V2000
   -0.3938   -3.2315   -3.5510 O   0  0  0  0  0  0  0  0  0  0  0  0
    0.0827   -2.0812   -2.9744 C   0  0  0  0  0  0  0  0  0  0  0  0
    0.8774   -2.0871   -1.8976 C   0  0  0  0  0  0  0  0  0  0  0  0
    1.2304   -3.2908   -1.3007 O   0  0  0  0  0  0  0  0  0  0  0  0
    2.4724   -3.2776   -0.6005 C   0  0  2  0  0  0  0  0  0  0  0  0
    2.7266   -4.5598    0.0145 O   0  0  0  0  0  0  0  0  0  0  0  0
    2.7864   -5.6611   -0.8265 C   0  0  0  0  0  0  0  0  0  0  0  0
    2.4117   -6.8978   -0.4164 C   0  0  0  0  0  0  0  0  0  0  0  0
    2.5278   -8.0048   -1.2786 O   0  0  0  0  0  0  0  0  0  0  0  0
    3.2649   -7.9068   -2.4665 C   0  0  0  0  0  0  0  0  0  0  0  0
    3.7023   -6.7151   -2.9085 C   0  0  0  0  0  0  0  0  0  0  0  0
    3.3981   -5.4441   -2.1868 C   0  0  0  0  0  0  0  0  0  0  0  0
    4.5321   -6.5693   -4.1532 C   0  0  3  0  0  0  0  0  0  0  0  0
    5.7990   -6.0623   -3.7506 O   0  0  0  0  0  0  0  0  0  0  0  0
    6.7870   -6.0287   -4.6664 C   0  0  0  0  0  0  0  0  0  0  0  0
    7.8558   -5.3718   -4.4300 N   0  0  0  0  0  0  0  0  0  0  0  0
    6.6369   -6.7144   -5.8111 O   0  0  0  0  0  0  0  0  0  0  0  0
    5.5958   -7.6563   -6.0332 C   0  0  3  0  0  0  0  0  0  0  0  0
    4.7606   -7.8714   -4.8213 C   0  0  0  0  0  0  0  0  0  0  0  0
    4.2712   -9.0405   -4.3497 C   0  0  0  0  0  0  0  0  0  0  0  0
    3.5343   -9.0648   -3.1659 O   0  3  0  0  0  0  0  0  0  0  0  0
    4.4748  -10.3452   -5.0084 C   0  0  3  0  0  0  0  0  0  0  0  0
    3.8426  -11.4735   -4.4066 N   0  0  0  0  0  0  0  0  0  0  0  0
    5.0710  -11.3744   -4.2398 N   0  0  0  0  0  0  0  0  0  0  0  0
    4.7110   -7.1597   -7.0159 O   0  0  0  0  0  0  0  0  0  0  0  0
    1.8552   -7.2002    0.9576 C   0  0  0  0  0  0  0  0  0  0  0  0
    1.1179   -6.2157    1.6239 C   0  0  0  0  0  0  0  0  0  0  0  0
    0.6352   -6.4058    2.8550 N   0  3  0  0  0  0  0  0  0  0  0  0
   -0.0192   -5.3982    3.4646 F   0  0  0  0  0  0  0  0  0  0  0  0
    0.7554   -7.5476    3.4939 N   0  0  0  0  0  0  0  0  0  0  0  0
    1.3913   -8.5636    2.9145 C   0  0  0  0  0  0  0  0  0  0  0  0
    1.9945   -8.4440    1.6412 C   0  0  0  0  0  0  0  0  0  0  0  0
    2.6763   -9.5857    1.1520 C   0  0  0  0  0  0  0  0  0  0  0  0
    2.6453  -10.8153    1.8263 C   0  0  0  0  0  0  0  0  0  0  0  0
    3.2180  -12.0071    1.1920 C   0  0  0  0  0  0  0  0  0  0  0  0
    3.8457  -11.8930    0.1479 O   0  0  0  0  0  0  0  0  0  0  0  0
    2.9135  -13.3431    1.8422 C   0  0  0  0  0  0  0  0  0  0  0  0
    3.4738  -14.3573    1.4567 O   0  0  0  0  0  0  0  0  0  0  0  0
    1.8260  -13.2847    2.8964 C   0  0  1  0  0  0  0  0  0  0  0  0
    1.8934  -12.1067    3.7243 O   0  0  0  0  0  0  0  0  0  0  0  0
    2.0067  -10.9288    3.0428 C   0  0  0  0  0  0  0  0  0  0  0  0
    1.4309   -9.7862    3.5903 C   0  0  0  0  0  0  0  0  0  0  0  0
    0.8282   -9.8781    4.7868 F   0  0  0  0  0  0  0  0  0  0  0  0
    0.4579  -13.3972    2.2762 C   0  0  1  0  0  0  0  0  0  0  0  0
    0.0803  -12.3798    1.3174 O   0  0  0  0  0  0  0  0  0  0  0  0
    0.0194  -14.7133    1.9569 O   0  0  0  0  0  0  0  0  0  0  0  0
   -0.6951  -14.0553    3.0109 C   0  0  3  0  0  0  0  0  0  0  0  0
   -1.9870  -13.5284    2.6498 O   0  0  0  0  0  0  0  0  0  0  0  0
    2.3635   -2.2442    0.4953 C   0  0  0  0  0  0  0  0  0  0  0  0
    2.3335   -2.4743    1.6926 O   0  0  0  0  0  0  0  0  0  0  0  0
    2.1670   -0.8704   -0.0884 C   0  0  0  0  0  0  0  0  0  0  0  0
    2.7485    0.0796    0.3892 O   0  0  0  0  0  0  0  0  0  0  0  0
    1.3166   -0.7619   -1.3471 C   0  0  0  0  0  0  0  0  0  0  0  0
    1.0467    0.3067   -1.8511 O   0  0  0  0  0  0  0  0  0  0  0  0
  1  2  1  0  0  0  0
  2  3  2  0  0  0  0
  3  4  1  0  0  0  0
  3 53  1  0  0  0  0
  4  5  1  0  0  0  0
  5  6  1  1  0  0  0
  5 49  1  0  0  0  0
  6  7  1  0  0  0  0
  7  8  2  0  0  0  0
  7 12  1  0  0  0  0
  8  9  1  0  0  0  0
  8 26  1  0  0  0  0
  9 10  1  0  0  0  0
 10 11  2  0  0  0  0
 10 21  1  0  0  0  0
 11 12  1  0  0  0  0
 11 13  1  0  0  0  0
 13 14  1  0  0  0  0
 13 19  1  0  0  0  0
 14 15  1  0  0  0  0
 15 16  2  0  0  0  0
 15 17  1  0  0  0  0
 17 18  1  0  0  0  0
 18 19  1  0  0  0  0
 18 25  1  0  0  0  0
 19 20  2  0  0  0  0
 20 21  1  0  0  0  0
 20 22  1  0  0  0  0
 22 23  1  0  0  0  0
 22 24  1  0  0  0  0
 23 24  2  0  0  0  0
 26 27  2  0  0  0  0
 26 32  1  0  0  0  0
 27 28  1  0  0  0  0
 28 29  1  0  0  0  0
 28 30  2  0  0  0  0
 30 31  1  0  0  0  0
 31 32  2  0  0  0  0
 31 42  1  0  0  0  0
 32 33  1  0  0  0  0
 33 34  2  0  0  0  0
 34 35  1  0  0  0  0
 34 41  1  0  0  0  0
 35 36  2  0  0  0  0
 35 37  1  0  0  0  0
 37 38  2  0  0  0  0
 39 37  1  6  0  0  0
 39 40  1  0  0  0  0
 39 44  1  0  0  0  0
 40 41  1  0  0  0  0
 41 42  2  0  0  0  0
 42 43  1  0  0  0  0
 44 45  1  6  0  0  0
 44 46  1  0  0  0  0
 44 47  1  0  0  0  0
 46 47  1  0  0  0  0
 47 48  1  0  0  0  0
 49 50  2  0  0  0  0
 49 51  1  0  0  0  0
 51 52  2  0  0  0  0
 51 53  1  0  0  0  0
 53 54  2  0  0  0  0
M  CHG  2  21   1  28   1
M  END
$$$$