
 OpenBabel10262010373D

 51 58  0  0  1  0  0  0  0  0999 V2000
    0.6872    6.8226    3.1855 O   0  0  0  0  0  0  0  0  0  0  0  0
    2.0139    6.8505    2.8434 C   0  0  0  0  0  0  0  0  0  0  0  0
    2.8034    5.7719    2.9191 C   0  0  0  0  0  0  0  0  0  0  0  0
    2.3169    4.5649    3.3823 O   0  0  0  0  0  0  0  0  0  0  0  0
    3.0375    3.3771    3.0652 C   0  0  2  0  0  0  0  0  0  0  0  0
    2.6121    2.2400    3.8534 O   0  0  0  0  0  0  0  0  0  0  0  0
    2.6979    2.2948    5.2421 C   0  0  0  0  0  0  0  0  0  0  0  0
    2.8996    1.1836    5.9882 C   0  0  0  0  0  0  0  0  0  0  0  0
    2.9844    1.2054    7.3791 O   0  0  0  0  0  0  0  0  0  0  0  0
    2.8254    2.4067    8.0550 C   0  0  0  0  0  0  0  0  0  0  0  0
    2.5252    3.5516    7.4186 C   0  0  0  0  0  0  0  0  0  0  0  0
    2.4446    3.6118    5.9295 C   0  0  0  0  0  0  0  0  0  0  0  0
    2.4470    4.8586    8.1625 C   0  0  3  0  0  0  0  0  0  0  0  0
    1.1291    5.4141    8.0752 N   0  0  0  0  0  0  0  0  0  0  0  0
    0.8782    6.6084    8.6700 C   0  0  0  0  0  0  0  0  0  0  0  0
   -0.0433    7.3295    8.3105 O   0  0  0  0  0  0  0  0  0  0  0  0
    1.7285    6.9605    9.6655 N   0  0  0  0  0  0  0  0  0  0  0  0
    2.6620    6.0773   10.3373 C   0  0  0  0  0  0  0  0  0  0  0  0
    2.7713    4.7662    9.6228 C   0  0  0  0  0  0  0  0  0  0  0  0
    3.0996    3.5741   10.1669 C   0  0  0  0  0  0  0  0  0  0  0  0
    3.0654    2.3998    9.4131 N   0  0  0  0  0  0  0  0  0  0  0  0
    3.5356    3.4955   11.5995 C   0  0  0  0  0  0  0  0  0  0  0  0
    4.0371    4.4102   12.2294 O   0  0  0  0  0  0  0  0  0  0  0  0
    3.3503    2.2541   12.1006 O   0  0  0  0  0  0  0  0  0  0  0  0
    3.0308   -0.1690    5.4075 C   0  0  0  0  0  0  0  0  0  0  0  0
    1.8677   -0.8527    5.3202 N   0  0  0  0  0  0  0  0  0  0  0  0
    1.9303   -2.0394    4.7100 C   0  0  0  0  0  0  0  0  0  0  0  0
    3.0241   -2.5883    4.1636 N   0  0  0  0  0  0  0  0  0  0  0  0
    4.1733   -1.9178    4.2922 C   0  0  0  0  0  0  0  0  0  0  0  0
    4.2577   -0.6862    4.9571 C   0  0  0  0  0  0  0  0  0  0  0  0
    5.5273   -0.0844    5.1345 C   0  0  0  0  0  0  0  0  0  0  0  0
    6.6813   -0.7018    4.6377 C   0  0  0  0  0  0  0  0  0  0  0  0
    6.5923   -1.8788    3.9128 C   0  0  0  0  0  0  0  0  0  0  0  0
    5.3339   -2.4691    3.7491 C   0  0  0  0  0  0  0  0  0  0  0  0
    7.6437   -2.5321    3.3357 O   0  0  0  0  0  0  0  0  0  0  0  0
    8.9674   -2.0135    3.5308 C   0  0  2  0  0  0  0  0  0  0  0  0
    9.1718   -1.0487    4.6749 C   0  0  0  0  0  0  0  0  0  0  0  0
   10.1816   -0.9840    5.3620 O   0  0  0  0  0  0  0  0  0  0  0  0
    7.9992   -0.1409    4.9381 C   0  0  0  0  0  0  0  0  0  0  0  0
    8.1411    0.9569    5.4497 O   0  0  0  0  0  0  0  0  0  0  0  0
    9.4853   -1.4238    2.2496 C   0  0  1  0  0  0  0  0  0  0  0  0
    8.7065   -0.3512    1.6765 O   0  0  0  0  0  0  0  0  0  0  0  0
   10.9123   -1.2109    2.2137 O   0  0  0  0  0  0  0  0  0  0  0  0
   10.4127   -2.1302    1.3913 C   0  0  0  0  0  0  0  0  0  0  0  0
   10.6607   -3.3129    1.2323 O   0  0  0  0  0  0  0  0  0  0  0  0
    4.5657    3.4455    3.0171 C   0  0  0  0  0  0  0  0  0  0  0  0
    5.3192    2.4992    2.8360 O   0  0  0  0  0  0  0  0  0  0  0  0
    5.0946    4.8452    3.1329 C   0  0  0  0  0  0  0  0  0  0  0  0
    6.1415    5.0778    3.7128 O   0  0  0  0  0  0  0  0  0  0  0  0
    4.2409    5.9659    2.6090 C   0  0  0  0  0  0  0  0  0  0  0  0
    4.7121    6.9094    2.0000 O   0  0  0  0  0  0  0  0  0  0  0  0
  1  2  1  0  0  0  0
  2  3  2  0  0  0  0
  3  4  1  0  0  0  0
  3 50  1  0  0  0  0
  4  5  1  0  0  0  0
  5  6  1  1  0  0  0
  5 46  1  0  0  0  0
  6  7  1  0  0  0  0
  7  8  2  0  0  0  0
  7 12  1  0  0  0  0
  8  9  1  0  0  0  0
  8 25  1  0  0  0  0
  9 10  1  0  0  0  0
 10 11  2  0  0  0  0
 10 21  1  0  0  0  0
 11 12  1  0  0  0  0
 11 13  1  0  0  0  0
 13 14  1  0  0  0  0
 13 19  1  0  0  0  0
 14 15  1  0  0  0  0
 15 16  2  0  0  0  0
 15 17  1  0  0  0  0
 17 18  1  0  0  0  0
 18 19  1  0  0  0  0
 19 20  2  0  0  0  0
 20 21  1  0  0  0  0
 20 22  1  0  0  0  0
 22 23  2  0  0  0  0
 22 24  1  0  0  0  0
 25 26  2  0  0  0  0
 25 30  1  0  0  0  0
 26 27  1  0  0  0  0
 27 28  2  0  0  0  0
 28 29  1  0  0  0  0
 29 30  2  0  0  0  0
 29 34  1  0  0  0  0
 30 31  1  0  0  0  0
 31 32  2  0  0  0  0
 32 33  1  0  0  0  0
 32 39  1  0  0  0  0
 33 34  2  0  0  0  0
 33 35  1  0  0  0  0
 36 35  1  6  0  0  0
 36 37  1  0  0  0  0
 36 41  1  0  0  0  0
 37 38  2  0  0  0  0
 37 39  1  0  0  0  0
 39 40  2  0  0  0  0
 41 42  1  6  0  0  0
 41 43  1  0  0  0  0
 41 44  1  0  0  0  0
 43 44  1  0  0  0  0
 44 45  2  0  0  0  0
 46 47  2  0  0  0  0
 46 48  1  0  0  0  0
 48 49  2  0  0  0  0
 48 50  1  0  0  0  0
 50 51  2  0  0  0  0
M  END
$$$$