
 OpenBabel11222022043D

 54 63  0  0  1  0  0  0  0  0999 V2000
   -4.8157  -17.5156    6.9642 O   0  0  0  0  0  0  0  0  0  0  0  0
   -4.7726  -16.2897    7.5769 C   0  0  0  0  0  0  0  0  0  0  0  0
   -4.2846  -15.1893    6.9888 C   0  0  0  0  0  0  0  0  0  0  0  0
   -3.7733  -15.2286    5.7017 O   0  0  0  0  0  0  0  0  0  0  0  0
   -3.8141  -13.9792    5.0147 C   0  0  2  0  0  0  0  0  0  0  0  0
   -3.3242  -14.1084    3.6730 O   0  0  0  0  0  0  0  0  0  0  0  0
   -4.2419  -14.4852    2.7047 C   0  0  0  0  0  0  0  0  0  0  0  0
   -4.0995  -14.0860    1.4237 C   0  0  0  0  0  0  0  0  0  0  0  0
   -4.9613  -14.4841    0.4064 O   0  0  0  0  0  0  0  0  0  0  0  0
   -5.9074  -15.4641    0.6532 C   0  0  0  0  0  0  0  0  0  0  0  0
   -6.1024  -15.9653    1.8871 C   0  0  0  0  0  0  0  0  0  0  0  0
   -5.3254  -15.4704    3.0761 C   0  0  0  0  0  0  0  0  0  0  0  0
   -7.0794  -17.0782    2.1380 C   0  0  3  0  0  0  0  0  0  0  0  0
   -8.0073  -16.6721    3.1290 O   0  0  0  0  0  0  0  0  0  0  0  0
   -8.8566  -17.6588    3.5338 C   0  0  0  0  0  0  0  0  0  0  0  0
   -9.4057  -17.6433    4.6209 O   0  0  0  0  0  0  0  0  0  0  0  0
   -9.0024  -18.6743    2.6417 O   0  0  0  0  0  0  0  0  0  0  0  0
   -8.9808  -18.3432    1.2602 C   0  0  3  0  0  0  0  0  0  0  0  0
   -7.8878  -17.3858    0.9320 C   0  0  0  0  0  0  0  0  0  0  0  0
   -7.6582  -16.8167   -0.2735 C   0  0  0  0  0  0  0  0  0  0  0  0
   -6.6317  -15.9012   -0.4276 O   0  3  0  0  0  0  0  0  0  0  0  0
   -8.4782  -17.0851   -1.4775 C   0  0  0  0  0  0  0  0  0  0  0  0
   -9.6301  -16.2836   -1.7724 O   0  0  0  0  0  0  0  0  0  0  0  0
   -8.4531  -16.1816   -2.5966 O   0  0  0  0  0  0  0  0  0  0  0  0
   -8.6905  -19.5142    0.5213 O   0  0  0  0  0  0  0  0  0  0  0  0
   -2.9477  -13.3083    0.9209 C   0  0  0  0  0  0  0  0  0  0  0  0
   -2.0574  -14.0936    0.2692 N   0  0  0  0  0  0  0  0  0  0  0  0
   -0.9884  -13.4843   -0.2681 C   0  0  0  0  0  0  0  0  0  0  0  0
   -0.0897  -14.2556   -0.8935 F   0  0  0  0  0  0  0  0  0  0  0  0
   -0.7791  -12.1204   -0.2405 C   0  0  0  0  0  0  0  0  0  0  0  0
   -1.7098  -11.2832    0.3996 C   0  0  0  0  0  0  0  0  0  0  0  0
   -2.8368  -11.8986    1.0090 C   0  0  0  0  0  0  0  0  0  0  0  0
   -3.7990  -11.0739    1.6285 C   0  0  0  0  0  0  0  0  0  0  0  0
   -3.6697   -9.6803    1.6242 C   0  0  0  0  0  0  0  0  0  0  0  0
   -2.5801   -9.0761    1.0141 C   0  0  0  0  0  0  0  0  0  0  0  0
   -1.5636   -9.8633    0.4396 C   0  0  0  0  0  0  0  0  0  0  0  0
   -0.5464   -9.2104   -0.2950 N   0  0  0  0  0  0  0  0  0  0  0  0
   -2.4179   -7.7074    0.9857 O   0  0  0  0  0  0  0  0  0  0  0  0
   -3.6521   -6.9584    1.0341 C   0  0  1  0  0  0  0  0  0  0  0  0
   -4.6081   -7.3471    2.0977 C   0  0  0  0  0  0  0  0  0  0  0  0
   -5.3268   -6.5828    2.7172 O   0  0  0  0  0  0  0  0  0  0  0  0
   -4.7130   -8.8520    2.2436 C   0  0  0  0  0  0  0  0  0  0  0  0
   -5.6649   -9.3739    2.8058 O   0  0  0  0  0  0  0  0  0  0  0  0
   -3.5241   -5.5595    0.7481 N   0  0  0  0  0  0  0  0  0  0  0  0
   -4.2451   -6.4338   -0.2297 C   0  0  1  0  0  0  0  0  0  0  0  0
   -3.4267   -6.9467   -1.3452 O   0  0  0  0  0  0  0  0  0  0  0  0
   -4.1065   -5.8373   -1.5354 C   0  0  0  0  0  0  0  0  0  0  0  0
   -4.8994   -5.5241   -2.3982 O   0  0  0  0  0  0  0  0  0  0  0  0
   -2.9807  -12.9502    5.7591 C   0  0  0  0  0  0  0  0  0  0  0  0
   -2.1137  -12.2417    5.2875 O   0  0  0  0  0  0  0  0  0  0  0  0
   -3.4144  -12.8320    7.1994 C   0  0  0  0  0  0  0  0  0  0  0  0
   -3.1045  -11.8569    7.8625 O   0  0  0  0  0  0  0  0  0  0  0  0
   -4.2881  -13.9258    7.7821 C   0  0  0  0  0  0  0  0  0  0  0  0
   -4.9719  -13.7449    8.7742 O   0  0  0  0  0  0  0  0  0  0  0  0
  1  2  1  0  0  0  0
  2  3  2  0  0  0  0
  3  4  1  0  0  0  0
  3 53  1  0  0  0  0
  4  5  1  0  0  0  0
  5  6  1  6  0  0  0
  5 49  1  0  0  0  0
  6  7  1  0  0  0  0
  7  8  2  0  0  0  0
  7 12  1  0  0  0  0
  8  9  1  0  0  0  0
  8 26  1  0  0  0  0
  9 10  1  0  0  0  0
 10 11  2  0  0  0  0
 10 21  1  0  0  0  0
 11 12  1  0  0  0  0
 11 13  1  0  0  0  0
 13 14  1  0  0  0  0
 13 19  1  0  0  0  0
 14 15  1  0  0  0  0
 15 16  2  0  0  0  0
 15 17  1  0  0  0  0
 17 18  1  0  0  0  0
 18 19  1  0  0  0  0
 18 25  1  0  0  0  0
 19 20  2  0  0  0  0
 20 21  1  0  0  0  0
 20 22  1  0  0  0  0
 22 23  1  0  0  0  0
 22 24  1  0  0  0  0
 23 24  1  0  0  0  0
 26 27  2  0  0  0  0
 26 32  1  0  0  0  0
 27 28  1  0  0  0  0
 28 29  1  0  0  0  0
 28 30  2  0  0  0  0
 30 31  1  0  0  0  0
 31 32  2  0  0  0  0
 31 36  1  0  0  0  0
 32 33  1  0  0  0  0
 33 34  2  0  0  0  0
 34 35  1  0  0  0  0
 34 42  1  0  0  0  0
 35 36  2  0  0  0  0
 35 38  1  0  0  0  0
 36 37  1  0  0  0  0
 39 38  1  6  0  0  0
 39 40  1  0  0  0  0
 39 44  1  0  0  0  0
 39 45  1  0  0  0  0
 40 41  2  0  0  0  0
 40 42  1  0  0  0  0
 42 43  2  0  0  0  0
 45 44  1  1  0  0  0
 45 46  1  0  0  0  0
 45 47  1  0  0  0  0
 46 47  1  0  0  0  0
 47 48  2  0  0  0  0
 49 50  2  0  0  0  0
 49 51  1  0  0  0  0
 51 52  2  0  0  0  0
 51 53  1  0  0  0  0
 53 54  2  0  0  0  0
M  CHG  1  21   1
M  END
$$$$