
 OpenBabel10302017533D

 52 60  0  0  1  0  0  0  0  0999 V2000
   -1.0905   -2.1473   -3.5039 O   0  0  0  0  0  0  0  0  0  0  0  0
   -0.2896   -1.1828   -2.9530 C   0  0  0  0  0  0  0  0  0  0  0  0
    0.7726   -1.4725   -2.1923 C   0  0  0  0  0  0  0  0  0  0  0  0
    1.1105   -2.7833   -1.8992 O   0  0  0  0  0  0  0  0  0  0  0  0
    2.4074   -2.9749   -1.3259 C   0  0  2  0  0  0  0  0  0  0  0  0
    2.6439   -4.3505   -1.0086 O   0  0  0  0  0  0  0  0  0  0  0  0
    2.6224   -5.2683   -2.0521 C   0  0  0  0  0  0  0  0  0  0  0  0
    2.2766   -6.5553   -1.8319 C   0  0  0  0  0  0  0  0  0  0  0  0
    2.2479   -7.5220   -2.8303 O   0  0  0  0  0  0  0  0  0  0  0  0
    2.6725   -7.1876   -4.1053 C   0  0  0  0  0  0  0  0  0  0  0  0
    3.1009   -5.9537   -4.4207 C   0  0  0  0  0  0  0  0  0  0  0  0
    3.0977   -4.8395   -3.4198 C   0  0  0  0  0  0  0  0  0  0  0  0
    3.5763   -5.6449   -5.8200 C   0  0  3  0  0  0  0  0  0  0  0  0
    4.8991   -5.1155   -5.7192 O   0  0  0  0  0  0  0  0  0  0  0  0
    5.7907   -5.1500   -6.7391 C   0  0  0  0  0  0  0  0  0  0  0  0
    6.8799   -4.5999   -6.6437 O   0  0  0  0  0  0  0  0  0  0  0  0
    5.4358   -5.8241   -7.8625 O   0  0  0  0  0  0  0  0  0  0  0  0
    4.1698   -6.4733   -8.0604 C   0  0  3  0  0  0  0  0  0  0  0  0
    3.5712   -6.8184   -6.7447 C   0  0  0  0  0  0  0  0  0  0  0  0
    3.1059   -8.0276   -6.3554 C   0  0  0  0  0  0  0  0  0  0  0  0
    2.6493   -8.1757   -5.0561 N   0  0  0  0  0  0  0  0  0  0  0  0
    3.0597   -9.2361   -7.2107 C   0  0  0  0  0  0  0  0  0  0  0  0
    2.0333  -10.2336   -7.0645 O   0  0  0  0  0  0  0  0  0  0  0  0
    2.0677   -9.3973   -8.2372 O   0  0  0  0  0  0  0  0  0  0  0  0
    3.2972   -5.5664   -8.9244 C   0  0  0  0  0  0  0  0  0  0  0  0
    1.9477   -7.0716   -0.4905 C   0  0  0  0  0  0  0  0  0  0  0  0
    3.0122   -7.5522    0.1898 N   0  0  0  0  0  0  0  0  0  0  0  0
    2.7722   -7.9713    1.4342 C   0  0  0  0  0  0  0  0  0  0  0  0
    1.5876   -7.9493    2.0592 N   0  0  0  0  0  0  0  0  0  0  0  0
    0.5436   -7.4870    1.3664 C   0  0  0  0  0  0  0  0  0  0  0  0
    0.6483   -7.0441    0.0397 C   0  0  0  0  0  0  0  0  0  0  0  0
   -0.5187   -6.6329   -0.6492 C   0  0  0  0  0  0  0  0  0  0  0  0
   -1.7597   -6.6414   -0.0044 C   0  0  0  0  0  0  0  0  0  0  0  0
   -1.8522   -7.0197    1.3262 C   0  0  0  0  0  0  0  0  0  0  0  0
   -0.7003   -7.4510    1.9894 C   0  0  0  0  0  0  0  0  0  0  0  0
   -3.0065   -7.0422    2.0554 O   0  0  0  0  0  0  0  0  0  0  0  0
   -4.1280   -6.3363    1.5215 C   0  0  2  0  0  0  0  0  0  0  0  0
   -4.2750   -6.3167    0.0173 C   0  0  0  0  0  0  0  0  0  0  0  0
   -5.3497   -6.2588   -0.5659 O   0  0  0  0  0  0  0  0  0  0  0  0
   -2.9757   -6.3029   -0.7490 C   0  0  0  0  0  0  0  0  0  0  0  0
   -2.9522   -6.0569   -1.9449 O   0  0  0  0  0  0  0  0  0  0  0  0
   -4.1762   -4.9443    2.0684 C   0  0  1  0  0  0  0  0  0  0  0  0
   -3.0429   -4.0925    1.7706 O   0  0  0  0  0  0  0  0  0  0  0  0
   -5.4582   -4.3168    1.9710 O   0  0  0  0  0  0  0  0  0  0  0  0
   -4.9940   -4.5453    3.2140 C   0  0  0  0  0  0  0  0  0  0  0  0
   -4.7670   -3.7622    4.1070 O   0  0  0  0  0  0  0  0  0  0  0  0
    2.5115   -2.1471   -0.0520 C   0  0  0  0  0  0  0  0  0  0  0  0
    2.7820   -2.5453    1.0700 O   0  0  0  0  0  0  0  0  0  0  0  0
    2.2211   -0.6898   -0.3112 C   0  0  0  0  0  0  0  0  0  0  0  0
    2.5373    0.1716    0.4922 O   0  0  0  0  0  0  0  0  0  0  0  0
    1.5048   -0.3256   -1.5927 C   0  0  0  0  0  0  0  0  0  0  0  0
    1.5518    0.7932   -2.0732 O   0  0  0  0  0  0  0  0  0  0  0  0
  1  2  1  0  0  0  0
  2  3  2  0  0  0  0
  3  4  1  0  0  0  0
  3 51  1  0  0  0  0
  4  5  1  0  0  0  0
  5  6  1  1  0  0  0
  5 47  1  0  0  0  0
  6  7  1  0  0  0  0
  7  8  2  0  0  0  0
  7 12  1  0  0  0  0
  8  9  1  0  0  0  0
  8 26  1  0  0  0  0
  9 10  1  0  0  0  0
 10 11  2  0  0  0  0
 10 21  1  0  0  0  0
 11 12  1  0  0  0  0
 11 13  1  0  0  0  0
 13 14  1  0  0  0  0
 13 19  1  0  0  0  0
 14 15  1  0  0  0  0
 15 16  2  0  0  0  0
 15 17  1  0  0  0  0
 17 18  1  0  0  0  0
 18 19  1  0  0  0  0
 18 25  1  0  0  0  0
 19 20  2  0  0  0  0
 20 21  1  0  0  0  0
 20 22  1  0  0  0  0
 22 23  1  0  0  0  0
 22 24  1  0  0  0  0
 23 24  1  0  0  0  0
 26 27  2  0  0  0  0
 26 31  1  0  0  0  0
 27 28  1  0  0  0  0
 28 29  2  0  0  0  0
 29 30  1  0  0  0  0
 30 31  2  0  0  0  0
 30 35  1  0  0  0  0
 31 32  1  0  0  0  0
 32 33  2  0  0  0  0
 33 34  1  0  0  0  0
 33 40  1  0  0  0  0
 34 35  2  0  0  0  0
 34 36  1  0  0  0  0
 37 36  1  6  0  0  0
 37 38  1  0  0  0  0
 37 42  1  0  0  0  0
 38 39  2  0  0  0  0
 38 40  1  0  0  0  0
 40 41  2  0  0  0  0
 42 43  1  6  0  0  0
 42 44  1  0  0  0  0
 42 45  1  0  0  0  0
 44 45  1  0  0  0  0
 45 46  2  0  0  0  0
 47 48  2  0  0  0  0
 47 49  1  0  0  0  0
 49 50  2  0  0  0  0
 49 51  1  0  0  0  0
 51 52  2  0  0  0  0
M  END
$$$$