
 OpenBabel11172005433D

 52 61  0  0  1  0  0  0  0  0999 V2000
    6.0599   -6.8854    9.0833 O   0  0  0  0  0  0  0  0  0  0  0  0
    6.9850   -7.0318   10.0839 C   0  0  0  0  0  0  0  0  0  0  0  0
    7.6259   -8.1827   10.3161 C   0  0  0  0  0  0  0  0  0  0  0  0
    7.3500   -9.3297    9.5956 O   0  0  0  0  0  0  0  0  0  0  0  0
    8.5309   -9.9553    9.0957 C   0  0  2  0  0  0  0  0  0  0  0  0
    8.2084  -11.1353    8.3450 O   0  0  0  0  0  0  0  0  0  0  0  0
    7.3957  -10.9728    7.2303 C   0  0  0  0  0  0  0  0  0  0  0  0
    6.5659  -11.9596    6.8315 C   0  0  0  0  0  0  0  0  0  0  0  0
    5.7580  -11.8743    5.7050 O   0  0  0  0  0  0  0  0  0  0  0  0
    5.7934  -10.7210    4.9378 C   0  0  0  0  0  0  0  0  0  0  0  0
    6.6094   -9.6934    5.2260 C   0  0  0  0  0  0  0  0  0  0  0  0
    7.5114   -9.7070    6.4182 C   0  0  0  0  0  0  0  0  0  0  0  0
    6.5848   -8.4452    4.3862 C   0  0  3  0  0  0  0  0  0  0  0  0
    7.9266   -8.1097    4.0115 O   0  0  0  0  0  0  0  0  0  0  0  0
    8.0362   -6.8763    3.4250 C   0  0  0  0  0  0  0  0  0  0  0  0
    8.9105   -6.0955    3.7884 O   0  0  0  0  0  0  0  0  0  0  0  0
    7.0610   -6.5538    2.4917 N   0  0  0  0  0  0  0  0  0  0  0  0
    5.9606   -7.4251    2.2238 C   0  0  3  0  0  0  0  0  0  0  0  0
    5.7430   -8.5467    3.1371 C   0  0  0  0  0  0  0  0  0  0  0  0
    4.9584   -9.6293    2.9229 C   0  0  0  0  0  0  0  0  0  0  0  0
    4.9455  -10.6527    3.8601 N   0  0  0  0  0  0  0  0  0  0  0  0
    4.1138   -9.8179    1.7199 C   0  0  0  0  0  0  0  0  0  0  0  0
    4.6161  -10.4555    0.5360 O   0  0  0  0  0  0  0  0  0  0  0  0
    3.6099  -11.1091    1.3340 O   0  0  0  0  0  0  0  0  0  0  0  0
    7.0962   -7.3991    1.3637 O   0  0  0  0  0  0  0  0  0  0  0  0
    6.4487  -13.2336    7.5559 C   0  0  0  0  0  0  0  0  0  0  0  0
    7.2919  -14.2750    7.2030 C   0  0  0  0  0  0  0  0  0  0  0  0
    7.2864  -15.4599    7.8382 N   0  0  0  0  0  0  0  0  0  0  0  0
    6.4362  -15.6507    8.8897 N   0  0  0  0  0  0  0  0  0  0  0  0
    5.5951  -14.6844    9.2833 C   0  0  0  0  0  0  0  0  0  0  0  0
    5.5475  -13.4405    8.6233 C   0  0  0  0  0  0  0  0  0  0  0  0
    4.6072  -12.4780    9.0594 C   0  0  0  0  0  0  0  0  0  0  0  0
    3.7662  -12.7405   10.1457 C   0  0  0  0  0  0  0  0  0  0  0  0
    3.8579  -13.9455   10.8242 C   0  0  0  0  0  0  0  0  0  0  0  0
    4.7561  -14.9126   10.3708 C   0  0  0  0  0  0  0  0  0  0  0  0
    3.1036  -14.2836   11.9114 O   0  0  0  0  0  0  0  0  0  0  0  0
    2.5006  -13.2038   12.6298 C   0  0  2  0  0  0  0  0  0  0  0  0
    1.9680  -12.0571   11.8009 C   0  0  0  0  0  0  0  0  0  0  0  0
    1.0101  -11.3658   12.1215 O   0  0  0  0  0  0  0  0  0  0  0  0
    2.7565  -11.7569   10.5491 C   0  0  0  0  0  0  0  0  0  0  0  0
    2.5399  -10.7504    9.8921 O   0  0  0  0  0  0  0  0  0  0  0  0
    3.4264  -12.7016   13.6933 C   0  0  1  0  0  0  0  0  0  0  0  0
    4.7029  -12.1768   13.2496 O   0  0  0  0  0  0  0  0  0  0  0  0
    2.7853  -11.9623   14.7362 O   0  0  0  0  0  0  0  0  0  0  0  0
    3.3641  -13.1244   15.0927 C   0  0  0  0  0  0  0  0  0  0  0  0
    4.2529  -13.3343   15.8852 O   0  0  0  0  0  0  0  0  0  0  0  0
    9.4983  -10.3717   10.2004 C   0  0  0  0  0  0  0  0  0  0  0  0
   10.3987  -11.1920   10.0891 O   0  0  0  0  0  0  0  0  0  0  0  0
    9.3376   -9.5728   11.4713 C   0  0  0  0  0  0  0  0  0  0  0  0
    9.7329  -10.0054   12.5414 O   0  0  0  0  0  0  0  0  0  0  0  0
    8.6506   -8.2288   11.3905 C   0  0  0  0  0  0  0  0  0  0  0  0
    8.9653   -7.2896   12.0990 O   0  0  0  0  0  0  0  0  0  0  0  0
  1  2  1  0  0  0  0
  2  3  2  0  0  0  0
  3  4  1  0  0  0  0
  3 51  1  0  0  0  0
  4  5  1  0  0  0  0
  5  6  1  1  0  0  0
  5 47  1  0  0  0  0
  6  7  1  0  0  0  0
  7  8  2  0  0  0  0
  7 12  1  0  0  0  0
  8  9  1  0  0  0  0
  8 26  1  0  0  0  0
  9 10  1  0  0  0  0
 10 11  2  0  0  0  0
 10 21  1  0  0  0  0
 11 12  1  0  0  0  0
 11 13  1  0  0  0  0
 13 14  1  0  0  0  0
 13 19  1  0  0  0  0
 14 15  1  0  0  0  0
 15 16  2  0  0  0  0
 15 17  1  0  0  0  0
 17 18  1  0  0  0  0
 17 25  1  0  0  0  0
 18 19  1  0  0  0  0
 18 25  1  0  0  0  0
 19 20  2  0  0  0  0
 20 21  1  0  0  0  0
 20 22  1  0  0  0  0
 22 23  1  0  0  0  0
 22 24  1  0  0  0  0
 23 24  1  0  0  0  0
 26 27  2  0  0  0  0
 26 31  1  0  0  0  0
 27 28  1  0  0  0  0
 28 29  2  0  0  0  0
 29 30  1  0  0  0  0
 30 31  2  0  0  0  0
 30 35  1  0  0  0  0
 31 32  1  0  0  0  0
 32 33  2  0  0  0  0
 33 34  1  0  0  0  0
 33 40  1  0  0  0  0
 34 35  2  0  0  0  0
 34 36  1  0  0  0  0
 37 36  1  6  0  0  0
 37 38  1  0  0  0  0
 37 42  1  0  0  0  0
 38 39  2  0  0  0  0
 38 40  1  0  0  0  0
 40 41  2  0  0  0  0
 42 43  1  6  0  0  0
 42 44  1  0  0  0  0
 42 45  1  0  0  0  0
 44 45  1  0  0  0  0
 45 46  2  0  0  0  0
 47 48  2  0  0  0  0
 47 49  1  0  0  0  0
 49 50  2  0  0  0  0
 49 51  1  0  0  0  0
 51 52  2  0  0  0  0
M  END
$$$$