
 OpenBabel05202119563D

 55 66  0  0  1  0  0  0  0  0999 V2000
    2.3980    0.2871   -4.8047 F   0  0  0  0  0  0  0  0  0  0  0  0
    3.6510   -0.0143   -4.4389 C   0  0  0  0  0  0  0  0  0  0  0  0
    4.6962    0.7525   -4.9191 C   0  0  0  0  0  0  0  0  0  0  0  0
    5.9792    0.4313   -4.5105 C   0  0  0  0  0  0  0  0  0  0  0  0
    6.1855   -0.6264   -3.6079 C   0  0  0  0  0  0  0  0  0  0  0  0
    5.1501   -1.4530   -3.1080 C   0  0  0  0  0  0  0  0  0  0  0  0
    3.8711   -1.1058   -3.5844 C   0  0  0  0  0  0  0  0  0  0  0  0
    5.3968   -2.6213   -2.1583 C   0  0  0  0  0  0  0  0  0  0  0  0
    4.4843   -3.0314   -1.1467 C   0  0  0  0  0  0  0  0  0  0  0  0
    3.1921   -2.3299   -0.7929 C   0  0  0  0  0  0  0  0  0  0  0  0
    4.7566   -4.1815   -0.3507 C   0  0  0  0  0  0  0  0  0  0  0  0
    5.9590   -4.9026   -0.3930 C   0  0  0  0  0  0  0  0  0  0  0  0
    6.9426   -4.4343   -1.2936 C   0  0  0  0  0  0  0  0  0  0  0  0
    6.5966   -3.4010   -2.2079 C   0  0  0  0  0  0  0  0  0  0  0  0
    7.4324   -3.4640   -3.4281 C   0  0  0  0  0  0  0  0  0  0  0  0
    6.8667   -3.5596   -4.5170 O   0  0  0  0  0  0  0  0  0  0  0  0
    8.9711   -3.5052   -3.2312 C   0  0  1  0  0  0  0  0  0  0  0  0
    9.3849   -4.4102   -2.0421 C   0  0  2  0  0  0  0  0  0  0  0  0
    8.2155   -5.0517   -1.3229 C   0  0  0  0  0  0  0  0  0  0  0  0
    8.4321   -6.1970   -0.5809 C   0  0  0  0  0  0  0  0  0  0  0  0
    7.4283   -6.7020    0.2355 C   0  0  0  0  0  0  0  0  0  0  0  0
    6.1767   -6.0765    0.3967 C   0  0  0  0  0  0  0  0  0  0  0  0
    5.0479   -6.7974    1.3040 C   0  0  0  0  0  0  0  0  0  0  0  0
    4.4816   -5.8350    2.6978 C   0  0  0  0  0  0  0  0  0  0  0  0
    5.1317   -6.8200    3.0757 C   0  0  0  0  0  0  0  0  0  0  0  0
    5.7716   -7.8060    2.6211 C   0  0  0  0  0  0  0  0  0  0  0  0
    9.5598   -6.9446   -0.6150 O   0  0  0  0  0  0  0  0  0  0  0  0
   10.6973   -6.4609   -1.3242 C   0  0  2  0  0  0  0  0  0  0  0  0
   10.4472   -5.4403   -2.4421 C   0  0  1  0  0  0  0  0  0  0  0  0
   10.0736   -6.0318   -3.7724 C   0  0  0  0  0  0  0  0  0  0  0  0
    9.6253   -5.1554   -4.7618 C   0  0  0  0  0  0  0  0  0  0  0  0
    9.5859   -3.8202   -4.4825 O   0  0  0  0  0  0  0  0  0  0  0  0
    9.3107   -5.5969   -6.0466 C   0  0  0  0  0  0  0  0  0  0  0  0
    8.7970   -4.6627   -7.1043 C   0  0  0  0  0  0  0  0  0  0  0  0
    9.4386   -6.9633   -6.3132 C   0  0  0  0  0  0  0  0  0  0  0  0
    9.8664   -7.8662   -5.3332 C   0  0  0  0  0  0  0  0  0  0  0  0
   10.2162   -7.3925   -4.0562 C   0  0  0  0  0  0  0  0  0  0  0  0
   10.7349   -8.2972   -3.1299 C   0  0  0  0  0  0  0  0  0  0  0  0
   11.2929   -7.7727   -1.8621 C   0  0  0  0  0  0  0  0  0  0  0  0
   12.1615   -8.3988   -1.2548 O   0  0  0  0  0  0  0  0  0  0  0  0
   10.7597   -9.6688   -3.4113 C   0  0  0  0  0  0  0  0  0  0  0  0
   10.2688  -10.1688   -4.6318 C   0  0  0  0  0  0  0  0  0  0  0  0
    9.9380   -9.2355   -5.6222 C   0  0  0  0  0  0  0  0  0  0  0  0
    9.6867   -9.6550   -6.8967 O   0  0  0  0  0  0  0  0  0  0  0  0
    9.7982   -8.6192   -7.8674 C   0  0  0  0  0  0  0  0  0  0  0  0
    9.1077   -7.4080   -7.5679 O   0  0  0  0  0  0  0  0  0  0  0  0
   10.2769  -11.9599   -4.8016 S   0  3  0  0  0  0  0  0  0  0  0  0
    9.5738  -12.3900   -6.4007 C   0  0  0  0  0  0  0  0  0  0  0  0
    8.1048  -12.0787   -6.6568 C   0  0  0  0  0  0  0  0  0  0  0  0
    7.1675  -12.6260   -5.5979 C   0  0  0  0  0  0  0  0  0  0  0  0
    7.5020  -12.0338   -4.2364 C   0  0  0  0  0  0  0  0  0  0  0  0
    8.8812  -12.4527   -3.7535 C   0  0  0  0  0  0  0  0  0  0  0  0
   11.6037   -5.8899   -0.3791 O   0  0  0  0  0  0  0  0  0  0  0  0
    9.4397   -2.1949   -2.9089 O   0  0  0  0  0  0  0  0  0  0  0  0
    7.4530   -0.8157   -3.2255 F   0  0  0  0  0  0  0  0  0  0  0  0
  1  2  1  0  0  0  0
  2  3  2  0  0  0  0
  2  7  1  0  0  0  0
  3  4  1  0  0  0  0
  4  5  2  0  0  0  0
  5  6  1  0  0  0  0
  5 55  1  0  0  0  0
  6  7  2  0  0  0  0
  6  8  1  0  0  0  0
  8  9  2  0  0  0  0
  8 14  1  0  0  0  0
  9 11  1  0  0  0  0
  9 10  1  0  0  0  0
 11 12  2  0  0  0  0
 12 13  1  0  0  0  0
 12 22  1  0  0  0  0
 13 14  2  0  0  0  0
 13 19  1  0  0  0  0
 14 15  1  0  0  0  0
 15 17  1  0  0  0  0
 15 16  2  0  0  0  0
 17 18  1  0  0  0  0
 17 32  1  0  0  0  0
 17 54  1  1  0  0  0
 18 19  1  1  0  0  0
 18 29  1  0  0  0  0
 19 20  2  0  0  0  0
 20 21  1  0  0  0  0
 20 27  1  0  0  0  0
 21 22  2  0  0  0  0
 22 23  1  0  0  0  0
 23 24  1  0  0  0  0
 23 26  1  0  0  0  0
 24 25  2  0  0  0  0
 25 26  2  0  0  0  0
 27 28  1  0  0  0  0
 28 29  1  0  0  0  0
 28 39  1  0  0  0  0
 28 53  1  1  0  0  0
 29 30  1  6  0  0  0
 30 31  2  0  0  0  0
 30 37  1  0  0  0  0
 31 32  1  0  0  0  0
 31 33  1  0  0  0  0
 33 35  2  0  0  0  0
 33 34  1  0  0  0  0
 35 36  1  0  0  0  0
 35 46  1  0  0  0  0
 36 37  2  0  0  0  0
 36 43  1  0  0  0  0
 37 38  1  0  0  0  0
 38 39  1  0  0  0  0
 38 41  2  0  0  0  0
 39 40  2  0  0  0  0
 41 42  1  0  0  0  0
 42 43  2  0  0  0  0
 42 47  1  0  0  0  0
 43 44  1  0  0  0  0
 44 45  1  0  0  0  0
 45 46  1  0  0  0  0
 47 48  1  0  0  0  0
 47 52  1  0  0  0  0
 48 49  1  0  0  0  0
 49 50  1  0  0  0  0
 50 51  1  0  0  0  0
 51 52  1  0  0  0  0
M  CHG  1  47   1
M  END
$$$$