
 OpenBabel11242002563D

 54 62  0  0  1  0  0  0  0  0999 V2000
    5.6032   -6.2687   -0.9176 O   0  3  0  0  0  0  0  0  0  0  0  0
    6.1701   -5.3660   -0.8214 N   0  3  0  0  0  0  0  0  0  0  0  0
    6.8289   -4.0952   -0.7711 C   0  0  3  0  0  0  0  0  0  0  0  0
    6.1968   -3.1514   -1.6467 O   0  0  0  0  0  0  0  0  0  0  0  0
    4.8527   -2.8630   -1.2537 C   0  0  2  0  0  0  0  0  0  0  0  0
    4.1540   -2.2312   -2.3340 O   0  0  0  0  0  0  0  0  0  0  0  0
    4.0281   -2.9596   -3.5188 C   0  0  0  0  0  0  0  0  0  0  0  0
    3.9399   -2.3425   -4.7203 C   0  0  0  0  0  0  0  0  0  0  0  0
    3.8416   -3.0760   -5.9123 O   0  0  0  0  0  0  0  0  0  0  0  0
    3.8083   -4.4678   -5.9106 C   0  0  0  0  0  0  0  0  0  0  0  0
    3.7840   -5.1495   -4.7546 C   0  0  0  0  0  0  0  0  0  0  0  0
    3.9380   -4.4675   -3.4302 C   0  0  0  0  0  0  0  0  0  0  0  0
    3.6356   -6.6462   -4.7135 C   0  0  3  0  0  0  0  0  0  0  0  0
    2.3676   -6.9180   -4.1438 O   0  0  0  0  0  0  0  0  0  0  0  0
    1.9213   -8.2042   -4.1269 C   0  0  0  0  0  0  0  0  0  0  0  0
    0.9548   -8.5259   -3.4553 O   0  0  0  0  0  0  0  0  0  0  0  0
    2.5817   -9.0839   -4.9183 O   0  0  0  0  0  0  0  0  0  0  0  0
    3.4862   -8.7098   -5.9504 C   0  0  3  0  0  0  0  0  0  0  0  0
    3.6255   -7.2363   -6.0704 C   0  0  0  0  0  0  0  0  0  0  0  0
    3.7198   -6.5014   -7.2004 C   0  0  0  0  0  0  0  0  0  0  0  0
    3.7896   -5.1161   -7.1293 O   0  3  0  0  0  0  0  0  0  0  0  0
    3.7341   -7.0860   -8.5619 C   0  0  0  0  0  0  0  0  0  0  0  0
    2.5186   -7.2992   -9.2891 O   0  0  0  0  0  0  0  0  0  0  0  0
    3.4364   -6.2705   -9.7081 O   0  0  0  0  0  0  0  0  0  0  0  0
    4.7811   -9.1791   -5.6334 O   0  0  0  0  0  0  0  0  0  0  0  0
    3.9201   -0.8507   -4.9080 C   0  0  0  0  0  0  0  0  0  0  0  0
    3.3263   -0.0445   -3.9318 C   0  0  0  0  0  0  0  0  0  0  0  0
    3.2641    1.2834   -4.0656 N   0  3  0  0  0  0  0  0  0  0  0  0
    2.6882    2.0111   -3.0884 F   0  0  0  0  0  0  0  0  0  0  0  0
    3.7198    1.9106   -5.1319 N   0  0  0  0  0  0  0  0  0  0  0  0
    4.2737    1.2133   -6.1277 C   0  0  0  0  0  0  0  0  0  0  0  0
    4.4124   -0.1889   -6.0658 C   0  0  0  0  0  0  0  0  0  0  0  0
    5.0348   -0.8299   -7.1666 C   0  0  0  0  0  0  0  0  0  0  0  0
    5.4759   -0.1256   -8.2896 C   0  0  0  0  0  0  0  0  0  0  0  0
    6.0989   -0.8481   -9.4031 C   0  0  0  0  0  0  0  0  0  0  0  0
    6.0223   -2.0685   -9.4491 O   0  0  0  0  0  0  0  0  0  0  0  0
    6.8081   -0.0082  -10.4486 C   0  0  0  0  0  0  0  0  0  0  0  0
    7.2812   -0.5329  -11.4441 O   0  0  0  0  0  0  0  0  0  0  0  0
    6.9415    1.4581  -10.0820 C   0  0  1  0  0  0  0  0  0  0  0  0
    5.7926    1.9917   -9.3932 O   0  0  0  0  0  0  0  0  0  0  0  0
    5.3431    1.2437   -8.3423 C   0  0  0  0  0  0  0  0  0  0  0  0
    4.7299    1.8899   -7.2670 C   0  0  0  0  0  0  0  0  0  0  0  0
    4.5890    3.2236   -7.3185 F   0  0  0  0  0  0  0  0  0  0  0  0
    8.1751    1.6827   -9.2663 C   0  0  1  0  0  0  0  0  0  0  0  0
    8.2560    0.9670   -8.0002 O   0  0  0  0  0  0  0  0  0  0  0  0
    9.3849    1.8066   -9.9941 O   0  0  0  0  0  0  0  0  0  0  0  0
    8.9801    2.9069   -9.3279 C   0  0  0  0  0  0  0  0  0  0  0  0
    9.4900    3.4807   -8.3853 O   0  0  0  0  0  0  0  0  0  0  0  0
    4.9906   -1.9823   -0.0246 C   0  0  0  0  0  0  0  0  0  0  0  0
    4.5791   -0.8387    0.0809 O   0  0  0  0  0  0  0  0  0  0  0  0
    5.7769   -2.6883    1.0610 C   0  0  0  0  0  0  0  0  0  0  0  0
    5.4455   -2.5663    2.2262 O   0  0  0  0  0  0  0  0  0  0  0  0
    6.9041   -3.6235    0.6616 C   0  0  0  0  0  0  0  0  0  0  0  0
    7.7542   -3.9837    1.4583 O   0  0  0  0  0  0  0  0  0  0  0  0
  1  2  3  0  0  0  0
  2  3  1  0  0  0  0
  3  4  1  0  0  0  0
  3 53  1  0  0  0  0
  4  5  1  0  0  0  0
  5  6  1  6  0  0  0
  5 49  1  0  0  0  0
  6  7  1  0  0  0  0
  7  8  2  0  0  0  0
  7 12  1  0  0  0  0
  8  9  1  0  0  0  0
  8 26  1  0  0  0  0
  9 10  1  0  0  0  0
 10 11  2  0  0  0  0
 10 21  1  0  0  0  0
 11 12  1  0  0  0  0
 11 13  1  0  0  0  0
 13 14  1  0  0  0  0
 13 19  1  0  0  0  0
 14 15  1  0  0  0  0
 15 16  2  0  0  0  0
 15 17  1  0  0  0  0
 17 18  1  0  0  0  0
 18 19  1  0  0  0  0
 18 25  1  0  0  0  0
 19 20  2  0  0  0  0
 20 21  1  0  0  0  0
 20 22  1  0  0  0  0
 22 23  1  0  0  0  0
 22 24  1  0  0  0  0
 23 24  1  0  0  0  0
 26 27  2  0  0  0  0
 26 32  1  0  0  0  0
 27 28  1  0  0  0  0
 28 29  1  0  0  0  0
 28 30  2  0  0  0  0
 30 31  1  0  0  0  0
 31 32  2  0  0  0  0
 31 42  1  0  0  0  0
 32 33  1  0  0  0  0
 33 34  2  0  0  0  0
 34 35  1  0  0  0  0
 34 41  1  0  0  0  0
 35 36  2  0  0  0  0
 35 37  1  0  0  0  0
 37 38  2  0  0  0  0
 39 37  1  1  0  0  0
 39 40  1  0  0  0  0
 39 44  1  0  0  0  0
 40 41  1  0  0  0  0
 41 42  2  0  0  0  0
 42 43  1  0  0  0  0
 44 45  1  1  0  0  0
 44 46  1  0  0  0  0
 44 47  1  0  0  0  0
 46 47  1  0  0  0  0
 47 48  2  0  0  0  0
 49 50  2  0  0  0  0
 49 51  1  0  0  0  0
 51 52  2  0  0  0  0
 51 53  1  0  0  0  0
 53 54  2  0  0  0  0
M  CHG  4   1   1   2   1  21   1  28   1
M  END
$$$$