
 OpenBabel11242001203D

 53 61  0  0  1  0  0  0  0  0999 V2000
    7.1502   -3.3148   -5.1968 O   0  0  0  0  0  0  0  0  0  0  0  0
    6.6212   -4.0475   -4.1656 C   0  0  0  0  0  0  0  0  0  0  0  0
    5.3649   -3.8735   -3.7366 C   0  0  0  0  0  0  0  0  0  0  0  0
    4.5666   -2.9014   -4.3224 O   0  0  0  0  0  0  0  0  0  0  0  0
    3.1781   -2.8856   -4.0143 C   0  0  2  0  0  0  0  0  0  0  0  0
    2.5704   -1.6329   -4.4027 O   0  0  0  0  0  0  0  0  0  0  0  0
    2.6242   -1.2553   -5.7363 C   0  0  0  0  0  0  0  0  0  0  0  0
    2.6382    0.0509   -6.0747 C   0  0  0  0  0  0  0  0  0  0  0  0
    2.6319    0.5090   -7.3846 O   0  0  0  0  0  0  0  0  0  0  0  0
    2.8178   -0.3940   -8.4095 C   0  0  0  0  0  0  0  0  0  0  0  0
    2.8265   -1.7526   -8.1874 C   0  0  0  0  0  0  0  0  0  0  0  0
    2.6082   -2.3147   -6.8171 C   0  0  0  0  0  0  0  0  0  0  0  0
    3.0869   -2.5527   -9.2945 C   0  0  0  0  0  0  0  0  0  0  0  0
    3.0689   -3.9426   -9.1230 O   0  0  0  0  0  0  0  0  0  0  0  0
    3.6752   -4.8091  -10.0347 C   0  0  0  0  0  0  0  0  0  0  0  0
    3.8141   -5.9972   -9.7793 O   0  0  0  0  0  0  0  0  0  0  0  0
    4.1372   -4.2485  -11.1790 O   0  0  0  0  0  0  0  0  0  0  0  0
    3.6585   -2.9794  -11.6443 C   0  0  0  0  0  0  0  0  0  0  0  0
    3.3681   -2.0233  -10.5416 C   0  0  0  0  0  0  0  0  0  0  0  0
    3.3167   -0.6335  -10.6929 C   0  0  0  0  0  0  0  0  0  0  0  0
    3.0190    0.1642   -9.6224 N   0  0  0  0  0  0  0  0  0  0  0  0
    3.5617    0.0549  -12.0183 C   0  0  0  0  0  0  0  0  0  0  0  0
    4.6304    1.0153  -12.0674 O   0  0  0  0  0  0  0  0  0  0  0  0
    4.7648   -0.2477  -12.7417 O   0  0  0  0  0  0  0  0  0  0  0  0
    2.6321    1.1622   -5.1000 C   0  0  0  0  0  0  0  0  0  0  0  0
    1.4033    1.6586   -4.6801 C   0  0  0  0  0  0  0  0  0  0  0  0
    1.3397    2.7338   -3.8880 N   0  3  0  0  0  0  0  0  0  0  0  0
    0.1350    3.1896   -3.4949 F   0  0  0  0  0  0  0  0  0  0  0  0
    2.4122    3.4011   -3.5053 N   0  0  0  0  0  0  0  0  0  0  0  0
    3.6221    2.9939   -3.9016 C   0  0  0  0  0  0  0  0  0  0  0  0
    3.8001    1.8381   -4.6827 C   0  0  0  0  0  0  0  0  0  0  0  0
    5.1202    1.4596   -5.0328 C   0  0  0  0  0  0  0  0  0  0  0  0
    6.2203    2.2638   -4.6890 C   0  0  0  0  0  0  0  0  0  0  0  0
    7.5671    1.9050   -5.1386 C   0  0  0  0  0  0  0  0  0  0  0  0
    7.8002    0.8230   -5.6497 O   0  0  0  0  0  0  0  0  0  0  0  0
    8.6400    2.9505   -4.9559 C   0  0  0  0  0  0  0  0  0  0  0  0
    9.6128    2.9764   -5.6939 O   0  0  0  0  0  0  0  0  0  0  0  0
    8.3948    3.8969   -3.8052 C   0  0  1  0  0  0  0  0  0  0  0  0
    7.0309    4.3007   -3.6261 O   0  0  0  0  0  0  0  0  0  0  0  0
    6.0400    3.4270   -3.9644 C   0  0  0  0  0  0  0  0  0  0  0  0
    4.7422    3.7579   -3.5660 C   0  0  0  0  0  0  0  0  0  0  0  0
    4.5565    4.8781   -2.8472 F   0  0  0  0  0  0  0  0  0  0  0  0
    8.9366    3.3488   -2.5167 C   0  0  1  0  0  0  0  0  0  0  0  0
    8.3999    2.0812   -2.0774 O   0  0  0  0  0  0  0  0  0  0  0  0
   10.3429    3.4980   -2.3103 O   0  0  0  0  0  0  0  0  0  0  0  0
    9.5370    4.2187   -1.5179 C   0  0  0  0  0  0  0  0  0  0  0  0
    9.4677    5.4196   -1.3288 O   0  0  0  0  0  0  0  0  0  0  0  0
    2.9675   -3.0262   -2.5208 C   0  0  0  0  0  0  0  0  0  0  0  0
    2.4106   -2.2300   -1.7803 O   0  0  0  0  0  0  0  0  0  0  0  0
    3.5837   -4.2923   -2.0063 C   0  0  0  0  0  0  0  0  0  0  0  0
    2.9718   -4.9920   -1.2188 O   0  0  0  0  0  0  0  0  0  0  0  0
    4.9294   -4.6932   -2.5656 C   0  0  0  0  0  0  0  0  0  0  0  0
    5.5861   -5.5916   -2.0681 O   0  0  0  0  0  0  0  0  0  0  0  0
  1  2  1  0  0  0  0
  2  3  2  0  0  0  0
  3  4  1  0  0  0  0
  3 52  1  0  0  0  0
  4  5  1  0  0  0  0
  5  6  1  1  0  0  0
  5 48  1  0  0  0  0
  6  7  1  0  0  0  0
  7  8  2  0  0  0  0
  7 12  1  0  0  0  0
  8  9  1  0  0  0  0
  8 25  1  0  0  0  0
  9 10  1  0  0  0  0
 10 11  2  0  0  0  0
 10 21  1  0  0  0  0
 11 12  1  0  0  0  0
 11 13  1  0  0  0  0
 13 14  1  0  0  0  0
 13 19  2  0  0  0  0
 14 15  1  0  0  0  0
 15 16  2  0  0  0  0
 15 17  1  0  0  0  0
 17 18  1  0  0  0  0
 18 19  1  0  0  0  0
 19 20  1  0  0  0  0
 20 21  2  0  0  0  0
 20 22  1  0  0  0  0
 22 23  1  0  0  0  0
 22 24  1  0  0  0  0
 23 24  1  0  0  0  0
 25 26  2  0  0  0  0
 25 31  1  0  0  0  0
 26 27  1  0  0  0  0
 27 28  1  0  0  0  0
 27 29  2  0  0  0  0
 29 30  1  0  0  0  0
 30 31  2  0  0  0  0
 30 41  1  0  0  0  0
 31 32  1  0  0  0  0
 32 33  2  0  0  0  0
 33 34  1  0  0  0  0
 33 40  1  0  0  0  0
 34 35  2  0  0  0  0
 34 36  1  0  0  0  0
 36 37  2  0  0  0  0
 38 36  1  6  0  0  0
 38 39  1  0  0  0  0
 38 43  1  0  0  0  0
 39 40  1  0  0  0  0
 40 41  2  0  0  0  0
 41 42  1  0  0  0  0
 43 44  1  1  0  0  0
 43 45  1  0  0  0  0
 43 46  1  0  0  0  0
 45 46  1  0  0  0  0
 46 47  2  0  0  0  0
 48 49  2  0  0  0  0
 48 50  1  0  0  0  0
 50 51  2  0  0  0  0
 50 52  1  0  0  0  0
 52 53  2  0  0  0  0
M  CHG  1  27   1
M  END
$$$$