
 OpenBabel11222023373D

 53 62  0  0  1  0  0  0  0  0999 V2000
   -4.1291   -0.7152  -12.4462 O   0  0  0  0  0  0  0  0  0  0  0  0
   -3.9556    0.6018  -12.7845 C   0  0  0  0  0  0  0  0  0  0  0  0
   -2.8510    1.2845  -12.4633 C   0  0  0  0  0  0  0  0  0  0  0  0
   -1.8380    0.6780  -11.7367 O   0  0  0  0  0  0  0  0  0  0  0  0
   -0.5382    1.1883  -12.0087 C   0  0  2  0  0  0  0  0  0  0  0  0
    0.4577    0.4830  -11.2434 O   0  0  0  0  0  0  0  0  0  0  0  0
    0.6501   -0.8593  -11.5424 C   0  0  0  0  0  0  0  0  0  0  0  0
    1.1260   -1.7080  -10.6061 C   0  0  0  0  0  0  0  0  0  0  0  0
    1.4449   -3.0392  -10.8723 O   0  0  0  0  0  0  0  0  0  0  0  0
    1.3244   -3.5213  -12.1760 C   0  0  0  0  0  0  0  0  0  0  0  0
    0.8451   -2.7486  -13.1639 C   0  0  0  0  0  0  0  0  0  0  0  0
    0.4148   -1.3377  -12.9585 C   0  0  0  0  0  0  0  0  0  0  0  0
    0.7568   -3.3246  -14.5363 C   0  0  0  0  0  0  0  0  0  0  0  0
    0.3345   -2.6016  -15.5261 N   0  0  0  0  0  0  0  0  0  0  0  0
    0.2929   -3.2053  -16.7510 C   0  0  0  0  0  0  0  0  0  0  0  0
   -0.1134   -2.4542  -17.7048 N   0  0  0  0  0  0  0  0  0  0  0  0
    0.6306   -4.4874  -17.0629 N   0  0  0  0  0  0  0  0  0  0  0  0
    1.0468   -5.2308  -16.0954 C   0  0  0  0  0  0  0  0  0  0  0  0
    1.1791   -4.7380  -14.7170 C   0  0  0  0  0  0  0  0  0  0  0  0
    1.6524   -5.4327  -13.6624 C   0  0  0  0  0  0  0  0  0  0  0  0
    1.7311   -4.8106  -12.4172 N   0  0  0  0  0  0  0  0  0  0  0  0
    2.1117   -6.8451  -13.7181 C   0  0  0  0  0  0  0  0  0  0  0  0
    2.5300   -7.5519  -12.5354 O   0  0  0  0  0  0  0  0  0  0  0  0
    1.3053   -7.9147  -13.2018 O   0  0  0  0  0  0  0  0  0  0  0  0
    1.4224   -1.2834   -9.2227 C   0  0  0  0  0  0  0  0  0  0  0  0
    2.7144   -0.8501   -8.9447 C   0  0  0  0  0  0  0  0  0  0  0  0
    3.0497   -0.4540   -7.7129 N   0  3  0  0  0  0  0  0  0  0  0  0
    4.3141   -0.0583   -7.4716 F   0  0  0  0  0  0  0  0  0  0  0  0
    2.1920   -0.4453   -6.7098 N   0  0  0  0  0  0  0  0  0  0  0  0
    0.9310   -0.8385   -6.9127 C   0  0  0  0  0  0  0  0  0  0  0  0
    0.4784   -1.2770   -8.1723 C   0  0  0  0  0  0  0  0  0  0  0  0
   -0.8778   -1.6728   -8.3021 C   0  0  0  0  0  0  0  0  0  0  0  0
   -1.7526   -1.6385   -7.2033 C   0  0  0  0  0  0  0  0  0  0  0  0
   -1.2925   -1.2299   -5.9631 C   0  0  0  0  0  0  0  0  0  0  0  0
    0.0344   -0.8196   -5.8426 C   0  0  0  0  0  0  0  0  0  0  0  0
    0.4703   -0.3926   -4.6460 F   0  0  0  0  0  0  0  0  0  0  0  0
   -2.0848   -1.1706   -4.8470 O   0  0  0  0  0  0  0  0  0  0  0  0
   -3.2532   -2.0233   -4.8872 C   0  0  1  0  0  0  0  0  0  0  0  0
   -4.0424   -1.9883   -6.1259 C   0  0  0  0  0  0  0  0  0  0  0  0
   -5.2592   -1.9644   -6.1615 O   0  0  0  0  0  0  0  0  0  0  0  0
   -3.1701   -2.0004   -7.3627 C   0  0  0  0  0  0  0  0  0  0  0  0
   -3.6199   -2.2910   -8.4588 O   0  0  0  0  0  0  0  0  0  0  0  0
   -3.1289   -3.2893   -4.2903 O   0  0  0  0  0  0  0  0  0  0  0  0
   -3.9922   -2.3102   -3.6169 C   0  0  1  0  0  0  0  0  0  0  0  0
   -3.3744   -1.4785   -2.5509 O   0  0  0  0  0  0  0  0  0  0  0  0
   -3.9295   -2.6116   -2.2245 C   0  0  0  0  0  0  0  0  0  0  0  0
   -4.7596   -2.9254   -1.3843 O   0  0  0  0  0  0  0  0  0  0  0  0
   -0.4973    2.6473  -11.6026 C   0  0  0  0  0  0  0  0  0  0  0  0
    0.2872    3.1490  -10.8105 O   0  0  0  0  0  0  0  0  0  0  0  0
   -1.5693    3.4514  -12.2959 C   0  0  0  0  0  0  0  0  0  0  0  0
   -1.4506    4.6595  -12.4080 O   0  0  0  0  0  0  0  0  0  0  0  0
   -2.7661    2.7175  -12.8737 C   0  0  0  0  0  0  0  0  0  0  0  0
   -3.5519    3.2615  -13.6293 O   0  0  0  0  0  0  0  0  0  0  0  0
  1  2  1  0  0  0  0
  2  3  2  0  0  0  0
  3  4  1  0  0  0  0
  3 52  1  0  0  0  0
  4  5  1  0  0  0  0
  5  6  1  1  0  0  0
  5 48  1  0  0  0  0
  6  7  1  0  0  0  0
  7  8  2  0  0  0  0
  7 12  1  0  0  0  0
  8  9  1  0  0  0  0
  8 25  1  0  0  0  0
  9 10  1  0  0  0  0
 10 11  2  0  0  0  0
 10 21  1  0  0  0  0
 11 12  1  0  0  0  0
 11 13  1  0  0  0  0
 13 14  2  0  0  0  0
 13 19  1  0  0  0  0
 14 15  1  0  0  0  0
 15 16  2  0  0  0  0
 15 17  1  0  0  0  0
 17 18  2  0  0  0  0
 18 19  1  0  0  0  0
 19 20  2  0  0  0  0
 20 21  1  0  0  0  0
 20 22  1  0  0  0  0
 22 23  1  0  0  0  0
 22 24  1  0  0  0  0
 23 24  1  0  0  0  0
 25 26  2  0  0  0  0
 25 31  1  0  0  0  0
 26 27  1  0  0  0  0
 27 28  1  0  0  0  0
 27 29  2  0  0  0  0
 29 30  1  0  0  0  0
 30 31  2  0  0  0  0
 30 35  1  0  0  0  0
 31 32  1  0  0  0  0
 32 33  2  0  0  0  0
 33 34  1  0  0  0  0
 33 41  1  0  0  0  0
 34 35  2  0  0  0  0
 34 37  1  0  0  0  0
 35 36  1  0  0  0  0
 38 37  1  1  0  0  0
 38 39  1  0  0  0  0
 38 43  1  0  0  0  0
 38 44  1  0  0  0  0
 39 40  2  0  0  0  0
 39 41  1  0  0  0  0
 41 42  2  0  0  0  0
 44 43  1  1  0  0  0
 44 45  1  0  0  0  0
 44 46  1  0  0  0  0
 45 46  1  0  0  0  0
 46 47  2  0  0  0  0
 48 49  2  0  0  0  0
 48 50  1  0  0  0  0
 50 51  2  0  0  0  0
 50 52  1  0  0  0  0
 52 53  2  0  0  0  0
M  CHG  1  27   1
M  END
$$$$