
 OpenBabel11272002403D

 54 62  0  0  1  0  0  0  0  0999 V2000
    4.9836   -0.2532   -0.9089 O   0  0  0  0  0  0  0  0  0  0  0  0
    3.8914   -0.3797   -1.7269 C   0  0  0  0  0  0  0  0  0  0  0  0
    3.0561   -1.4294   -1.6957 C   0  0  0  0  0  0  0  0  0  0  0  0
    3.2840   -2.5257   -0.8613 O   0  0  0  0  0  0  0  0  0  0  0  0
    2.1423   -3.2978   -0.4784 C   0  0  2  0  0  0  0  0  0  0  0  0
    2.5204   -4.3984    0.3966 O   0  0  0  0  0  0  0  0  0  0  0  0
    2.8788   -5.6340   -0.1239 C   0  0  0  0  0  0  0  0  0  0  0  0
    2.5115   -6.7980    0.4745 C   0  0  0  0  0  0  0  0  0  0  0  0
    2.7149   -8.0324   -0.1719 O   0  0  0  0  0  0  0  0  0  0  0  0
    3.1874   -8.0848   -1.4864 C   0  0  0  0  0  0  0  0  0  0  0  0
    3.7365   -7.0017   -2.0526 C   0  0  0  0  0  0  0  0  0  0  0  0
    3.7495   -5.6593   -1.3637 C   0  0  0  0  0  0  0  0  0  0  0  0
    4.3180   -7.0440   -3.4213 C   0  0  3  0  0  0  0  0  0  0  0  0
    5.6402   -6.5478   -3.3581 O   0  0  0  0  0  0  0  0  0  0  0  0
    6.2000   -6.3320   -4.5905 C   0  0  0  0  0  0  0  0  0  0  0  0
    7.1224   -5.5807   -4.7801 O   0  0  0  0  0  0  0  0  0  0  0  0
    5.6200   -7.1070   -5.5585 O   0  0  0  0  0  0  0  0  0  0  0  0
    5.3937   -8.4123   -5.1058 C   0  0  3  0  0  0  0  0  0  0  0  0
    4.4226   -8.4552   -3.9559 C   0  0  0  0  0  0  0  0  0  0  0  0
    3.7721   -9.5223   -3.3998 C   0  0  0  0  0  0  0  0  0  0  0  0
    3.0855   -9.2986   -2.1628 O   0  3  0  0  0  0  0  0  0  0  0  0
    3.7828  -10.9472   -3.9767 C   0  0  0  0  0  0  0  0  0  0  0  0
    4.5816  -11.4123   -5.1945 N   0  3  0  0  0  0  0  0  0  0  0  0
    3.5022  -11.2128   -5.4045 N   0  3  0  0  0  0  0  0  0  0  0  0
    4.7911   -9.1923   -6.1357 O   0  0  0  0  0  0  0  0  0  0  0  0
    1.8956   -6.8998    1.8568 C   0  0  0  0  0  0  0  0  0  0  0  0
    2.2548   -5.9497    2.8222 C   0  0  0  0  0  0  0  0  0  0  0  0
    1.7434   -5.9738    4.0588 N   0  3  0  0  0  0  0  0  0  0  0  0
    2.0871   -5.0046    4.9311 F   0  0  0  0  0  0  0  0  0  0  0  0
    0.9001   -6.9012    4.4585 N   0  0  0  0  0  0  0  0  0  0  0  0
    0.5246   -7.8665    3.6216 C   0  0  0  0  0  0  0  0  0  0  0  0
    1.0118   -7.9309    2.2950 C   0  0  0  0  0  0  0  0  0  0  0  0
    0.5604   -9.0166    1.5081 C   0  0  0  0  0  0  0  0  0  0  0  0
   -0.3515   -9.9645    1.9921 C   0  0  0  0  0  0  0  0  0  0  0  0
   -0.7649  -11.0711    1.1272 C   0  0  0  0  0  0  0  0  0  0  0  0
   -0.1157  -11.3071    0.1109 O   0  0  0  0  0  0  0  0  0  0  0  0
   -1.9742  -11.8707    1.5765 C   0  0  0  0  0  0  0  0  0  0  0  0
   -2.2839  -12.8767    0.9570 O   0  0  0  0  0  0  0  0  0  0  0  0
   -2.7222  -11.2641    2.7543 C   0  0  1  0  0  0  0  0  0  0  0  0
   -1.8443  -10.6822    3.7444 O   0  0  0  0  0  0  0  0  0  0  0  0
   -0.8767   -9.8501    3.2597 C   0  0  0  0  0  0  0  0  0  0  0  0
   -0.4006   -8.8203    4.0688 C   0  0  0  0  0  0  0  0  0  0  0  0
   -0.8817   -8.7078    5.3165 F   0  0  0  0  0  0  0  0  0  0  0  0
   -3.7217  -10.2429    2.2805 C   0  0  1  0  0  0  0  0  0  0  0  0
   -3.1978   -9.0836    1.5863 O   0  0  0  0  0  0  0  0  0  0  0  0
   -4.9196  -10.7787    1.7292 O   0  0  0  0  0  0  0  0  0  0  0  0
   -5.0717  -10.0334    2.9446 C   0  0  3  0  0  0  0  0  0  0  0  0
   -5.5783   -8.6919    2.7824 O   0  0  0  0  0  0  0  0  0  0  0  0
    1.2810   -3.6656   -1.6899 C   0  0  0  0  0  0  0  0  0  0  0  0
    1.0084   -4.7944   -2.0853 O   0  0  0  0  0  0  0  0  0  0  0  0
    0.8854   -2.4554   -2.4662 C   0  0  0  0  0  0  0  0  0  0  0  0
   -0.2520   -2.3819   -2.8920 O   0  0  0  0  0  0  0  0  0  0  0  0
    1.9253   -1.3832   -2.6747 C   0  0  0  0  0  0  0  0  0  0  0  0
    1.8535   -0.6211   -3.6211 O   0  0  0  0  0  0  0  0  0  0  0  0
  1  2  1  0  0  0  0
  2  3  2  0  0  0  0
  3  4  1  0  0  0  0
  3 53  1  0  0  0  0
  4  5  1  0  0  0  0
  5  6  1  6  0  0  0
  5 49  1  0  0  0  0
  6  7  1  0  0  0  0
  7  8  2  0  0  0  0
  7 12  1  0  0  0  0
  8  9  1  0  0  0  0
  8 26  1  0  0  0  0
  9 10  1  0  0  0  0
 10 11  2  0  0  0  0
 10 21  1  0  0  0  0
 11 12  1  0  0  0  0
 11 13  1  0  0  0  0
 13 14  1  0  0  0  0
 13 19  1  0  0  0  0
 14 15  1  0  0  0  0
 15 16  2  0  0  0  0
 15 17  1  0  0  0  0
 17 18  1  0  0  0  0
 18 19  1  0  0  0  0
 18 25  1  0  0  0  0
 19 20  2  0  0  0  0
 20 21  1  0  0  0  0
 20 22  1  0  0  0  0
 22 23  1  0  0  0  0
 22 24  1  0  0  0  0
 23 24  3  0  0  0  0
 26 27  2  0  0  0  0
 26 32  1  0  0  0  0
 27 28  1  0  0  0  0
 28 29  1  0  0  0  0
 28 30  2  0  0  0  0
 30 31  1  0  0  0  0
 31 32  2  0  0  0  0
 31 42  1  0  0  0  0
 32 33  1  0  0  0  0
 33 34  2  0  0  0  0
 34 35  1  0  0  0  0
 34 41  1  0  0  0  0
 35 36  2  0  0  0  0
 35 37  1  0  0  0  0
 37 38  2  0  0  0  0
 39 37  1  6  0  0  0
 39 40  1  0  0  0  0
 39 44  1  0  0  0  0
 40 41  1  0  0  0  0
 41 42  2  0  0  0  0
 42 43  1  0  0  0  0
 44 45  1  6  0  0  0
 44 46  1  0  0  0  0
 44 47  1  0  0  0  0
 46 47  1  0  0  0  0
 47 48  1  0  0  0  0
 49 50  2  0  0  0  0
 49 51  1  0  0  0  0
 51 52  2  0  0  0  0
 51 53  1  0  0  0  0
 53 54  2  0  0  0  0
M  CHG  4  21   1  23   1  24   1  28   1
M  END
$$$$