
 OpenBabel11212014293D

 52 60  0  0  1  0  0  0  0  0999 V2000
   -1.5421    2.8009   -3.4941 O   0  0  0  0  0  0  0  0  0  0  0  0
   -1.0031    2.4225   -2.2918 C   0  0  0  0  0  0  0  0  0  0  0  0
    0.1188    1.6983   -2.2014 C   0  0  0  0  0  0  0  0  0  0  0  0
    0.7485    1.2408   -3.3435 O   0  0  0  0  0  0  0  0  0  0  0  0
    2.1650    1.1101   -3.2686 C   0  0  2  0  0  0  0  0  0  0  0  0
    2.6926    0.5855   -4.4920 O   0  0  0  0  0  0  0  0  0  0  0  0
    2.4774    1.3437   -5.6359 C   0  0  0  0  0  0  0  0  0  0  0  0
    2.3487    0.7574   -6.8398 C   0  0  0  0  0  0  0  0  0  0  0  0
    2.2083    1.4728   -8.0166 O   0  0  0  0  0  0  0  0  0  0  0  0
    2.3286    2.8559   -8.0017 C   0  0  0  0  0  0  0  0  0  0  0  0
    2.4847    3.5556   -6.8690 C   0  0  0  0  0  0  0  0  0  0  0  0
    2.5038    2.8453   -5.5358 C   0  0  0  0  0  0  0  0  0  0  0  0
    2.6099    5.0445   -6.7523 C   0  0  3  0  0  0  0  0  0  0  0  0
    3.8728    5.3320   -6.1572 O   0  0  0  0  0  0  0  0  0  0  0  0
    4.0526    6.6135   -5.7506 C   0  0  0  0  0  0  0  0  0  0  0  0
    4.8623    6.9149   -4.8866 O   0  0  0  0  0  0  0  0  0  0  0  0
    3.2236    7.5200   -6.3273 O   0  0  0  0  0  0  0  0  0  0  0  0
    2.7145    7.3023   -7.6555 C   0  0  0  0  0  0  0  0  0  0  0  0
    2.5386    5.8522   -7.9909 C   0  0  0  0  0  0  0  0  0  0  0  0
    2.3597    5.4127   -9.2497 C   0  0  0  0  0  0  0  0  0  0  0  0
    2.3096    3.6564   -9.5739 S   0  3  0  0  0  0  0  0  0  0  0  0
    2.2353    6.2510  -10.4661 C   0  0  0  0  0  0  0  0  0  0  0  0
    0.9423    6.6287  -10.9727 O   0  0  0  0  0  0  0  0  0  0  0  0
    1.8279    7.6304  -10.4439 O   0  0  0  0  0  0  0  0  0  0  0  0
    2.4166   -0.6987   -7.0310 C   0  0  0  0  0  0  0  0  0  0  0  0
    3.6633   -1.2549   -7.2717 C   0  0  0  0  0  0  0  0  0  0  0  0
    3.8468   -2.5712   -7.4507 N   0  0  0  0  0  0  0  0  0  0  0  0
    2.7692   -3.4073   -7.3816 N   0  0  0  0  0  0  0  0  0  0  0  0
    1.5278   -2.9413   -7.1477 C   0  0  0  0  0  0  0  0  0  0  0  0
    1.2977   -1.5606   -6.9721 C   0  0  0  0  0  0  0  0  0  0  0  0
   -0.0298   -1.1102   -6.7586 C   0  0  0  0  0  0  0  0  0  0  0  0
   -1.1016   -2.0108   -6.7085 C   0  0  0  0  0  0  0  0  0  0  0  0
   -2.4751   -1.5158   -6.5544 C   0  0  0  0  0  0  0  0  0  0  0  0
   -2.7306   -0.3276   -6.4422 O   0  0  0  0  0  0  0  0  0  0  0  0
   -3.5732   -2.5526   -6.5829 C   0  0  0  0  0  0  0  0  0  0  0  0
   -4.7336   -2.2404   -6.8110 O   0  0  0  0  0  0  0  0  0  0  0  0
   -3.1149   -3.9564   -6.2662 C   0  0  1  0  0  0  0  0  0  0  0  0
   -1.8430   -4.3388   -6.7977 O   0  0  0  0  0  0  0  0  0  0  0  0
   -0.8755   -3.3705   -6.8449 C   0  0  0  0  0  0  0  0  0  0  0  0
    0.4323   -3.8136   -7.0762 C   0  0  0  0  0  0  0  0  0  0  0  0
    0.6450   -5.1667   -7.2394 O   0  0  0  0  0  0  0  0  0  0  0  0
   -3.1539   -4.2063   -4.7932 C   0  0  1  0  0  0  0  0  0  0  0  0
   -2.3527   -3.3273   -3.9676 O   0  0  0  0  0  0  0  0  0  0  0  0
   -4.4395   -4.5493   -4.2770 O   0  0  0  0  0  0  0  0  0  0  0  0
   -3.4887   -5.4975   -4.2005 C   0  0  0  0  0  0  0  0  0  0  0  0
   -3.0222   -6.0521   -3.2258 O   0  0  0  0  0  0  0  0  0  0  0  0
    2.5468    0.1947   -2.1206 C   0  0  0  0  0  0  0  0  0  0  0  0
    3.2473   -0.8030   -2.1652 O   0  0  0  0  0  0  0  0  0  0  0  0
    1.9683    0.6785   -0.8217 C   0  0  0  0  0  0  0  0  0  0  0  0
    2.6184    0.5965    0.2079 O   0  0  0  0  0  0  0  0  0  0  0  0
    0.6203    1.3641   -0.8378 C   0  0  0  0  0  0  0  0  0  0  0  0
    0.0248    1.6277    0.1936 O   0  0  0  0  0  0  0  0  0  0  0  0
  1  2  1  0  0  0  0
  2  3  2  0  0  0  0
  3  4  1  0  0  0  0
  3 51  1  0  0  0  0
  4  5  1  0  0  0  0
  5  6  1  6  0  0  0
  5 47  1  0  0  0  0
  6  7  1  0  0  0  0
  7  8  2  0  0  0  0
  7 12  1  0  0  0  0
  8  9  1  0  0  0  0
  8 25  1  0  0  0  0
  9 10  1  0  0  0  0
 10 11  2  0  0  0  0
 10 21  1  0  0  0  0
 11 12  1  0  0  0  0
 11 13  1  0  0  0  0
 13 14  1  0  0  0  0
 13 19  1  0  0  0  0
 14 15  1  0  0  0  0
 15 16  2  0  0  0  0
 15 17  1  0  0  0  0
 17 18  1  0  0  0  0
 18 19  1  0  0  0  0
 19 20  2  0  0  0  0
 20 21  1  0  0  0  0
 20 22  1  0  0  0  0
 22 23  1  0  0  0  0
 22 24  1  0  0  0  0
 23 24  1  0  0  0  0
 25 26  2  0  0  0  0
 25 30  1  0  0  0  0
 26 27  1  0  0  0  0
 27 28  2  0  0  0  0
 28 29  1  0  0  0  0
 29 30  2  0  0  0  0
 29 40  1  0  0  0  0
 30 31  1  0  0  0  0
 31 32  2  0  0  0  0
 32 33  1  0  0  0  0
 32 39  1  0  0  0  0
 33 34  2  0  0  0  0
 33 35  1  0  0  0  0
 35 36  2  0  0  0  0
 37 35  1  1  0  0  0
 37 38  1  0  0  0  0
 37 42  1  0  0  0  0
 38 39  1  0  0  0  0
 39 40  2  0  0  0  0
 40 41  1  0  0  0  0
 42 43  1  1  0  0  0
 42 44  1  0  0  0  0
 42 45  1  0  0  0  0
 44 45  1  0  0  0  0
 45 46  2  0  0  0  0
 47 48  2  0  0  0  0
 47 49  1  0  0  0  0
 49 50  2  0  0  0  0
 49 51  1  0  0  0  0
 51 52  2  0  0  0  0
M  CHG  1  21   1
M  END
$$$$