
 OpenBabel11272000583D

 53 61  0  0  1  0  0  0  0  0999 V2000
    3.3151    1.1486   -1.8329 F   0  0  0  0  0  0  0  0  0  0  0  0
    2.0700    1.5332   -2.1688 C   0  0  0  0  0  0  0  0  0  0  0  0
    1.3156    0.7999   -2.9874 C   0  0  0  0  0  0  0  0  0  0  0  0
    1.7852   -0.3841   -3.5373 O   0  0  0  0  0  0  0  0  0  0  0  0
    0.7753   -1.3871   -3.6955 C   0  0  2  0  0  0  0  0  0  0  0  0
    1.3295   -2.6394   -4.1553 O   0  0  0  0  0  0  0  0  0  0  0  0
    1.8235   -2.7344   -5.4508 C   0  0  0  0  0  0  0  0  0  0  0  0
    1.7677   -3.8980   -6.1378 C   0  0  0  0  0  0  0  0  0  0  0  0
    2.2309   -4.0231   -7.4492 O   0  0  0  0  0  0  0  0  0  0  0  0
    2.6119   -2.8836   -8.1523 C   0  0  0  0  0  0  0  0  0  0  0  0
    2.7288   -1.6881   -7.5457 C   0  0  0  0  0  0  0  0  0  0  0  0
    2.4497   -1.5164   -6.0833 C   0  0  0  0  0  0  0  0  0  0  0  0
    3.0499   -0.4327   -8.3101 C   0  0  3  0  0  0  0  0  0  0  0  0
    4.2578    0.1187   -7.8185 O   0  0  0  0  0  0  0  0  0  0  0  0
    4.6469    1.2893   -8.4014 C   0  0  0  0  0  0  0  0  0  0  0  0
    5.4801    2.0219   -7.8958 O   0  0  0  0  0  0  0  0  0  0  0  0
    3.9989    1.5958   -9.5552 O   0  0  0  0  0  0  0  0  0  0  0  0
    3.6649    0.5457  -10.4530 C   0  0  3  0  0  0  0  0  0  0  0  0
    3.2844   -0.7064   -9.7451 C   0  0  0  0  0  0  0  0  0  0  0  0
    3.1732   -1.9382  -10.2900 C   0  0  0  0  0  0  0  0  0  0  0  0
    2.8355   -3.0259   -9.5004 O   0  3  0  0  0  0  0  0  0  0  0  0
    3.4068   -2.2135  -11.7254 C   0  0  0  0  0  0  0  0  0  0  0  0
    4.7113   -2.5611  -12.2068 O   0  0  0  0  0  0  0  0  0  0  0  0
    3.6644   -3.5511  -12.1838 O   0  0  0  0  0  0  0  0  0  0  0  0
    2.5058    0.9162  -11.1757 O   0  0  0  0  0  0  0  0  0  0  0  0
    1.1960   -5.1465   -5.5845 C   0  0  0  0  0  0  0  0  0  0  0  0
    2.0950   -5.9592   -4.9978 N   0  0  0  0  0  0  0  0  0  0  0  0
    1.6864   -7.0698   -4.4489 N   0  0  0  0  0  0  0  0  0  0  0  0
    0.4236   -7.4372   -4.4688 N   0  0  0  0  0  0  0  0  0  0  0  0
   -0.5087   -6.6697   -5.0481 C   0  0  0  0  0  0  0  0  0  0  0  0
   -0.1608   -5.4665   -5.6553 C   0  0  0  0  0  0  0  0  0  0  0  0
   -1.1674   -4.6711   -6.2545 C   0  0  0  0  0  0  0  0  0  0  0  0
   -2.5130   -5.0441   -6.1759 C   0  0  0  0  0  0  0  0  0  0  0  0
   -3.5511   -4.1589   -6.7146 C   0  0  0  0  0  0  0  0  0  0  0  0
   -3.2719   -3.0932   -7.2389 O   0  0  0  0  0  0  0  0  0  0  0  0
   -4.9754   -4.6480   -6.6117 C   0  0  0  0  0  0  0  0  0  0  0  0
   -5.8446   -4.2055   -7.3477 O   0  0  0  0  0  0  0  0  0  0  0  0
   -5.1965   -5.6795   -5.5302 C   0  0  1  0  0  0  0  0  0  0  0  0
   -4.1624   -6.6697   -5.4337 O   0  0  0  0  0  0  0  0  0  0  0  0
   -2.8724   -6.2325   -5.5643 C   0  0  0  0  0  0  0  0  0  0  0  0
   -1.8591   -7.0420   -5.0382 C   0  0  0  0  0  0  0  0  0  0  0  0
   -2.2112   -8.2034   -4.4602 F   0  0  0  0  0  0  0  0  0  0  0  0
   -5.4118   -5.0173   -4.2079 C   0  0  1  0  0  0  0  0  0  0  0  0
   -4.3167   -4.2108   -3.7020 O   0  0  0  0  0  0  0  0  0  0  0  0
   -6.7175   -4.4788   -4.0188 O   0  0  0  0  0  0  0  0  0  0  0  0
   -6.3601   -5.4864   -3.1925 C   0  0  0  0  0  0  0  0  0  0  0  0
   -6.2455   -5.4844   -1.9899 O   0  0  0  0  0  0  0  0  0  0  0  0
   -0.4026   -0.9285   -4.5615 C   0  0  0  0  0  0  0  0  0  0  0  0
   -1.0718   -1.6483   -5.2866 O   0  0  0  0  0  0  0  0  0  0  0  0
   -0.6247    0.5601   -4.5071 C   0  0  0  0  0  0  0  0  0  0  0  0
   -1.1246    1.1477   -5.4515 O   0  0  0  0  0  0  0  0  0  0  0  0
   -0.0285    1.3177   -3.3479 C   0  0  0  0  0  0  0  0  0  0  0  0
   -0.6187    2.2186   -2.7853 O   0  0  0  0  0  0  0  0  0  0  0  0
  1  2  1  0  0  0  0
  2  3  2  0  0  0  0
  3  4  1  0  0  0  0
  3 52  1  0  0  0  0
  4  5  1  0  0  0  0
  5  6  1  6  0  0  0
  5 48  1  0  0  0  0
  6  7  1  0  0  0  0
  7  8  2  0  0  0  0
  7 12  1  0  0  0  0
  8  9  1  0  0  0  0
  8 26  1  0  0  0  0
  9 10  1  0  0  0  0
 10 11  2  0  0  0  0
 10 21  1  0  0  0  0
 11 12  1  0  0  0  0
 11 13  1  0  0  0  0
 13 14  1  0  0  0  0
 13 19  1  0  0  0  0
 14 15  1  0  0  0  0
 15 16  2  0  0  0  0
 15 17  1  0  0  0  0
 17 18  1  0  0  0  0
 18 19  1  0  0  0  0
 18 25  1  0  0  0  0
 19 20  2  0  0  0  0
 20 21  1  0  0  0  0
 20 22  1  0  0  0  0
 22 23  1  0  0  0  0
 22 24  1  0  0  0  0
 23 24  1  0  0  0  0
 26 27  2  0  0  0  0
 26 31  1  0  0  0  0
 27 28  1  0  0  0  0
 28 29  2  0  0  0  0
 29 30  1  0  0  0  0
 30 31  2  0  0  0  0
 30 41  1  0  0  0  0
 31 32  1  0  0  0  0
 32 33  2  0  0  0  0
 33 34  1  0  0  0  0
 33 40  1  0  0  0  0
 34 35  2  0  0  0  0
 34 36  1  0  0  0  0
 36 37  2  0  0  0  0
 38 36  1  6  0  0  0
 38 39  1  0  0  0  0
 38 43  1  0  0  0  0
 39 40  1  0  0  0  0
 40 41  2  0  0  0  0
 41 42  1  0  0  0  0
 43 44  1  1  0  0  0
 43 45  1  0  0  0  0
 43 46  1  0  0  0  0
 45 46  1  0  0  0  0
 46 47  2  0  0  0  0
 48 49  2  0  0  0  0
 48 50  1  0  0  0  0
 50 51  2  0  0  0  0
 50 52  1  0  0  0  0
 52 53  2  0  0  0  0
M  CHG  1  21   1
M  END
$$$$