
 OpenBabel11242000333D

 53 62  0  0  1  0  0  0  0  0999 V2000
  -11.4210  -10.8130   -0.6730 O   0  0  0  0  0  0  0  0  0  0  0  0
  -12.2370  -10.2541    0.2765 C   0  0  0  0  0  0  0  0  0  0  0  0
  -12.2326   -8.9443    0.5544 C   0  0  0  0  0  0  0  0  0  0  0  0
  -11.3578   -8.0834   -0.0837 O   0  0  0  0  0  0  0  0  0  0  0  0
  -11.9056   -6.7957   -0.3448 C   0  0  2  0  0  0  0  0  0  0  0  0
  -10.9465   -5.9699   -1.0370 O   0  0  0  0  0  0  0  0  0  0  0  0
  -10.5879   -6.3773   -2.3135 C   0  0  0  0  0  0  0  0  0  0  0  0
   -9.3413   -6.1641   -2.7886 C   0  0  0  0  0  0  0  0  0  0  0  0
   -8.9803   -6.5451   -4.0639 N   0  0  0  0  0  0  0  0  0  0  0  0
   -9.8018   -7.2506   -4.9125 C   0  0  0  0  0  0  0  0  0  0  0  0
  -11.0842   -7.4727   -4.5544 C   0  0  0  0  0  0  0  0  0  0  0  0
  -11.6298   -7.0277   -3.2190 C   0  0  0  0  0  0  0  0  0  0  0  0
  -12.0143   -8.2670   -5.4374 C   0  0  3  0  0  0  0  0  0  0  0  0
  -13.1206   -7.4103   -5.8377 N   0  0  0  0  0  0  0  0  0  0  0  0
  -14.0214   -7.9056   -6.7228 C   0  0  0  0  0  0  0  0  0  0  0  0
  -15.2444   -7.5156   -6.7431 N   0  0  0  0  0  0  0  0  0  0  0  0
  -13.5533   -8.7680   -7.6456 N   0  0  0  0  0  0  0  0  0  0  0  0
  -12.3565   -9.5562   -7.5199 C   0  0  0  0  0  0  0  0  0  0  0  0
  -11.3788   -8.7893   -6.6923 C   0  0  0  0  0  0  0  0  0  0  0  0
  -10.0890   -8.5237   -6.9849 C   0  0  0  0  0  0  0  0  0  0  0  0
   -9.3428   -7.7619   -6.0990 N   0  0  0  0  0  0  0  0  0  0  0  0
   -9.3838   -8.9845   -8.2014 C   0  0  0  0  0  0  0  0  0  0  0  0
   -9.3731   -8.2077   -9.4071 O   0  0  0  0  0  0  0  0  0  0  0  0
   -8.1604   -8.3671   -8.6450 O   0  0  0  0  0  0  0  0  0  0  0  0
   -8.2899   -5.5110   -1.9916 C   0  0  0  0  0  0  0  0  0  0  0  0
   -8.2987   -4.1239   -1.9096 C   0  0  0  0  0  0  0  0  0  0  0  0
   -7.2944   -3.4790   -1.3101 N   0  3  0  0  0  0  0  0  0  0  0  0
   -7.3051   -2.1328   -1.2823 F   0  0  0  0  0  0  0  0  0  0  0  0
   -6.2586   -4.1096   -0.7801 N   0  0  0  0  0  0  0  0  0  0  0  0
   -6.2081   -5.4480   -0.8090 C   0  0  0  0  0  0  0  0  0  0  0  0
   -7.2264   -6.2159   -1.3975 C   0  0  0  0  0  0  0  0  0  0  0  0
   -7.1280   -7.6303   -1.3723 C   0  0  0  0  0  0  0  0  0  0  0  0
   -6.0220   -8.2649   -0.7949 C   0  0  0  0  0  0  0  0  0  0  0  0
   -4.9907   -7.5089   -0.2617 C   0  0  0  0  0  0  0  0  0  0  0  0
   -5.1085   -6.1163   -0.2637 C   0  0  0  0  0  0  0  0  0  0  0  0
   -4.1160   -5.3854    0.2690 F   0  0  0  0  0  0  0  0  0  0  0  0
   -3.8592   -8.0506    0.2922 O   0  0  0  0  0  0  0  0  0  0  0  0
   -3.6359   -9.4560    0.0187 C   0  0  1  0  0  0  0  0  0  0  0  0
   -4.8194  -10.3201    0.0693 C   0  0  0  0  0  0  0  0  0  0  0  0
   -4.9031  -11.3508    0.7104 O   0  0  0  0  0  0  0  0  0  0  0  0
   -5.9553   -9.7330   -0.7326 C   0  0  0  0  0  0  0  0  0  0  0  0
   -6.7758  -10.4357   -1.2965 O   0  0  0  0  0  0  0  0  0  0  0  0
   -2.7117   -9.7647   -0.9935 O   0  0  0  0  0  0  0  0  0  0  0  0
   -2.3250  -10.0695    0.3911 C   0  0  1  0  0  0  0  0  0  0  0  0
   -1.5537   -9.0326    1.1259 O   0  0  0  0  0  0  0  0  0  0  0  0
   -0.9002   -9.9449    0.4546 C   0  0  0  0  0  0  0  0  0  0  0  0
    0.0032  -10.6958    0.7377 O   0  0  0  0  0  0  0  0  0  0  0  0
  -12.2642   -6.0837    0.9482 C   0  0  0  0  0  0  0  0  0  0  0  0
  -12.0716   -4.8965    1.1758 O   0  0  0  0  0  0  0  0  0  0  0  0
  -12.9440   -6.9824    1.9474 C   0  0  0  0  0  0  0  0  0  0  0  0
  -13.2996   -6.5425    3.0317 O   0  0  0  0  0  0  0  0  0  0  0  0
  -13.1580   -8.4455    1.6076 C   0  0  0  0  0  0  0  0  0  0  0  0
  -14.0281   -9.1144    2.1374 O   0  0  0  0  0  0  0  0  0  0  0  0
  1  2  1  0  0  0  0
  2  3  2  0  0  0  0
  3  4  1  0  0  0  0
  3 52  1  0  0  0  0
  4  5  1  0  0  0  0
  5  6  1  1  0  0  0
  5 48  1  0  0  0  0
  6  7  1  0  0  0  0
  7  8  2  0  0  0  0
  7 12  1  0  0  0  0
  8  9  1  0  0  0  0
  8 25  1  0  0  0  0
  9 10  1  0  0  0  0
 10 11  2  0  0  0  0
 10 21  1  0  0  0  0
 11 12  1  0  0  0  0
 11 13  1  0  0  0  0
 13 14  1  0  0  0  0
 13 19  1  0  0  0  0
 14 15  1  0  0  0  0
 15 16  2  0  0  0  0
 15 17  1  0  0  0  0
 17 18  1  0  0  0  0
 18 19  1  0  0  0  0
 19 20  2  0  0  0  0
 20 21  1  0  0  0  0
 20 22  1  0  0  0  0
 22 23  1  0  0  0  0
 22 24  1  0  0  0  0
 23 24  1  0  0  0  0
 25 26  2  0  0  0  0
 25 31  1  0  0  0  0
 26 27  1  0  0  0  0
 27 28  1  0  0  0  0
 27 29  2  0  0  0  0
 29 30  1  0  0  0  0
 30 31  2  0  0  0  0
 30 35  1  0  0  0  0
 31 32  1  0  0  0  0
 32 33  2  0  0  0  0
 33 34  1  0  0  0  0
 33 41  1  0  0  0  0
 34 35  2  0  0  0  0
 34 37  1  0  0  0  0
 35 36  1  0  0  0  0
 38 37  1  1  0  0  0
 38 39  1  0  0  0  0
 38 43  1  0  0  0  0
 38 44  1  0  0  0  0
 39 40  2  0  0  0  0
 39 41  1  0  0  0  0
 41 42  2  0  0  0  0
 44 43  1  6  0  0  0
 44 45  1  0  0  0  0
 44 46  1  0  0  0  0
 45 46  1  0  0  0  0
 46 47  2  0  0  0  0
 48 49  2  0  0  0  0
 48 50  1  0  0  0  0
 50 51  2  0  0  0  0
 50 52  1  0  0  0  0
 52 53  2  0  0  0  0
M  CHG  1  27   1
M  END
$$$$