
 OpenBabel09212023263D

 52 61  0  0  1  0  0  0  0  0999 V2000
    1.7752    0.6626    0.8610 O   0  0  0  0  0  0  0  0  0  0  0  0
    2.6670    0.3488    0.0797 C   0  0  0  0  0  0  0  0  0  0  0  0
    2.9211   -0.9438   -0.2123 N   0  0  0  0  0  0  0  0  0  0  0  0
    3.8830   -1.4016   -1.1793 C   0  0  0  0  0  0  0  0  0  0  0  0
    4.7439   -0.3215   -1.7599 C   0  0  0  0  0  0  0  0  0  0  0  0
    4.4884    1.0135   -1.4145 C   0  0  0  0  0  0  0  0  0  0  0  0
    3.4454    1.2862   -0.5188 N   0  0  0  0  0  0  0  0  0  0  0  0
    5.2475    2.0539   -1.9569 C   0  0  0  0  0  0  0  0  0  0  0  0
    5.0033    3.5013   -1.6391 C   0  0  0  0  0  0  0  0  0  0  0  0
    5.9349    4.4329   -2.3582 C   0  0  0  0  0  0  0  0  0  0  0  0
    6.8954    3.9546   -3.1707 C   0  0  0  0  0  0  0  0  0  0  0  0
    7.0764    2.6143   -3.4467 O   0  0  0  0  0  0  0  0  0  0  0  0
    6.2567    1.6941   -2.8349 C   0  0  0  0  0  0  0  0  0  0  0  0
    6.5246    0.4172   -3.1787 N   0  0  0  0  0  0  0  0  0  0  0  0
    5.7779   -0.5987   -2.6668 C   0  0  0  0  0  0  0  0  0  0  0  0
    6.1610   -1.9793   -3.1666 C   0  0  0  0  0  0  0  0  0  0  0  0
    5.4681   -3.1548   -2.7272 O   0  0  0  0  0  0  0  0  0  0  0  0
    5.2311   -2.6309   -4.0491 O   0  0  0  0  0  0  0  0  0  0  0  0
    7.8395    4.8513   -3.8631 C   0  0  0  0  0  0  0  0  0  0  0  0
    7.4074    5.2566   -5.0835 N   0  0  0  0  0  0  0  0  0  0  0  0
    8.1672    6.1654   -5.7321 C   0  0  0  0  0  0  0  0  0  0  0  0
    9.3192    6.7234   -5.2045 C   0  0  0  0  0  0  0  0  0  0  0  0
    9.7542    6.3135   -3.9384 C   0  0  0  0  0  0  0  0  0  0  0  0
    9.0264    5.3204   -3.2495 C   0  0  0  0  0  0  0  0  0  0  0  0
    9.5282    4.8751   -2.0030 C   0  0  0  0  0  0  0  0  0  0  0  0
   10.6784    5.4472   -1.4449 C   0  0  0  0  0  0  0  0  0  0  0  0
   11.3371    6.4873   -2.0849 C   0  0  0  0  0  0  0  0  0  0  0  0
   10.8915    6.8943   -3.3432 C   0  0  0  0  0  0  0  0  0  0  0  0
   12.4200    7.1531   -1.5881 O   0  0  0  0  0  0  0  0  0  0  0  0
   12.7836    6.9176   -0.2232 C   0  0  2  0  0  0  0  0  0  0  0  0
   12.5047    5.5328    0.3019 C   0  0  0  0  0  0  0  0  0  0  0  0
   13.1846    4.9761    1.1530 O   0  0  0  0  0  0  0  0  0  0  0  0
   11.2093    4.9324   -0.1807 C   0  0  0  0  0  0  0  0  0  0  0  0
   10.6373    4.0763    0.4736 O   0  0  0  0  0  0  0  0  0  0  0  0
   12.2371    7.9874    0.6794 C   0  0  1  0  0  0  0  0  0  0  0  0
   12.6765    9.3393    0.3998 O   0  0  0  0  0  0  0  0  0  0  0  0
   10.8663    7.8350    1.0430 O   0  0  0  0  0  0  0  0  0  0  0  0
   11.7635    7.7644    2.0522 C   0  0  0  0  0  0  0  0  0  0  0  0
   11.8644    8.4629    3.0344 O   0  0  0  0  0  0  0  0  0  0  0  0
    5.8647    5.7742   -2.0314 O   0  0  0  0  0  0  0  0  0  0  0  0
    4.7104    6.4451   -2.5462 C   0  0  1  0  0  0  0  0  0  0  0  0
    3.6507    6.3696   -1.5881 O   0  0  0  0  0  0  0  0  0  0  0  0
    2.4394    7.0156   -1.9976 C   0  0  1  0  0  0  0  0  0  0  0  0
    1.4725    6.9496   -0.8557 C   0  0  0  0  0  0  0  0  0  0  0  0
    1.0280    5.6343   -0.5188 O   0  0  0  0  0  0  0  0  0  0  0  0
    0.1424    6.5605   -1.1913 O   0  0  0  0  0  0  0  0  0  0  0  0
    2.6654    8.4607   -2.3928 C   0  0  0  0  0  0  0  0  0  0  0  0
    1.8104    9.2313   -2.7970 O   0  0  0  0  0  0  0  0  0  0  0  0
    4.1077    8.8752   -2.3030 C   0  0  0  0  0  0  0  0  0  0  0  0
    4.4159    9.9512   -1.8204 O   0  0  0  0  0  0  0  0  0  0  0  0
    5.1443    7.8906   -2.7678 C   0  0  0  0  0  0  0  0  0  0  0  0
    6.1686    8.2753   -3.3105 O   0  0  0  0  0  0  0  0  0  0  0  0
  1  2  2  0  0  0  0
  2  3  1  0  0  0  0
  2  7  1  0  0  0  0
  3  4  1  0  0  0  0
  4  5  1  0  0  0  0
  5  6  2  0  0  0  0
  5 15  1  0  0  0  0
  6  7  1  0  0  0  0
  6  8  1  0  0  0  0
  8  9  1  0  0  0  0
  8 13  2  0  0  0  0
  9 10  1  0  0  0  0
 10 11  2  0  0  0  0
 10 40  1  0  0  0  0
 11 12  1  0  0  0  0
 11 19  1  0  0  0  0
 12 13  1  0  0  0  0
 13 14  1  0  0  0  0
 14 15  2  0  0  0  0
 15 16  1  0  0  0  0
 16 17  1  0  0  0  0
 16 18  1  0  0  0  0
 17 18  1  0  0  0  0
 19 20  2  0  0  0  0
 19 24  1  0  0  0  0
 20 21  1  0  0  0  0
 21 22  2  0  0  0  0
 22 23  1  0  0  0  0
 23 24  2  0  0  0  0
 23 28  1  0  0  0  0
 24 25  1  0  0  0  0
 25 26  2  0  0  0  0
 26 27  1  0  0  0  0
 26 33  1  0  0  0  0
 27 28  2  0  0  0  0
 27 29  1  0  0  0  0
 30 29  1  6  0  0  0
 30 31  1  0  0  0  0
 30 35  1  0  0  0  0
 31 32  2  0  0  0  0
 31 33  1  0  0  0  0
 33 34  2  0  0  0  0
 35 36  1  6  0  0  0
 35 37  1  0  0  0  0
 35 38  1  0  0  0  0
 37 38  1  0  0  0  0
 38 39  2  0  0  0  0
 41 40  1  1  0  0  0
 41 42  1  0  0  0  0
 41 51  1  0  0  0  0
 42 43  1  0  0  0  0
 43 47  1  0  0  0  0
 43 44  1  1  0  0  0
 44 45  1  0  0  0  0
 44 46  1  0  0  0  0
 45 46  1  0  0  0  0
 47 48  2  0  0  0  0
 47 49  1  0  0  0  0
 49 50  2  0  0  0  0
 49 51  1  0  0  0  0
 51 52  2  0  0  0  0
M  END
$$$$