
 OpenBabel11222002233D

 54 62  0  0  1  0  0  0  0  0999 V2000
   -2.0896    2.0253   -4.4477 O   0  0  0  0  0  0  0  0  0  0  0  0
   -1.7464    1.6375   -3.1757 C   0  0  0  0  0  0  0  0  0  0  0  0
   -0.7567    0.7724   -2.9220 C   0  0  0  0  0  0  0  0  0  0  0  0
   -0.0569    0.1842   -3.9643 O   0  0  0  0  0  0  0  0  0  0  0  0
    1.3001   -0.1303   -3.6731 C   0  0  2  0  0  0  0  0  0  0  0  0
    1.9416   -0.7415   -4.8221 O   0  0  0  0  0  0  0  0  0  0  0  0
    1.9643   -0.0179   -6.0078 C   0  0  0  0  0  0  0  0  0  0  0  0
    1.9637   -0.6438   -7.2054 C   0  0  0  0  0  0  0  0  0  0  0  0
    2.0111    0.0442   -8.4231 O   0  0  0  0  0  0  0  0  0  0  0  0
    2.1408    1.4376   -8.4331 C   0  0  0  0  0  0  0  0  0  0  0  0
    2.2266    2.1356   -7.2820 C   0  0  0  0  0  0  0  0  0  0  0  0
    2.1072    1.4829   -5.9311 C   0  0  0  0  0  0  0  0  0  0  0  0
    2.4187    3.6301   -7.2694 C   0  0  3  0  0  0  0  0  0  0  0  0
    3.6532    3.9120   -6.6480 O   0  0  0  0  0  0  0  0  0  0  0  0
    4.0624    5.2186   -6.6259 C   0  0  0  0  0  0  0  0  0  0  0  0
    4.9254    5.5837   -5.8561 O   0  0  0  0  0  0  0  0  0  0  0  0
    3.4588    6.0601   -7.5136 O   0  0  0  0  0  0  0  0  0  0  0  0
    2.7543    5.6134   -8.5674 C   0  0  0  0  0  0  0  0  0  0  0  0
    2.2690    6.3408   -9.4170 O   0  0  0  0  0  0  0  0  0  0  0  0
    2.5154    4.1731   -8.6286 C   0  0  0  0  0  0  0  0  0  0  0  0
    2.3855    3.4461   -9.7565 C   0  0  0  0  0  0  0  0  0  0  0  0
    2.1871    2.0710   -9.6632 O   0  3  0  0  0  0  0  0  0  0  0  0
    2.5015    3.9935  -11.1350 C   0  0  0  0  0  0  0  0  0  0  0  0
    3.7596    3.9822  -11.8225 O   0  0  0  0  0  0  0  0  0  0  0  0
    2.7010    3.1065  -12.2526 O   0  0  0  0  0  0  0  0  0  0  0  0
    2.0032   -2.1210   -7.3449 C   0  0  0  0  0  0  0  0  0  0  0  0
    3.2583   -2.7280   -7.4163 C   0  0  0  0  0  0  0  0  0  0  0  0
    3.3736   -4.0503   -7.5825 N   0  3  0  0  0  0  0  0  0  0  0  0
    4.5998   -4.5957   -7.7010 F   0  0  0  0  0  0  0  0  0  0  0  0
    2.3278   -4.8456   -7.6595 N   0  0  0  0  0  0  0  0  0  0  0  0
    1.0975   -4.3369   -7.5554 C   0  0  0  0  0  0  0  0  0  0  0  0
    0.8638   -2.9536   -7.4128 C   0  0  0  0  0  0  0  0  0  0  0  0
   -0.4799   -2.4971   -7.3576 C   0  0  0  0  0  0  0  0  0  0  0  0
   -1.5550   -3.3995   -7.4161 C   0  0  0  0  0  0  0  0  0  0  0  0
   -2.9604   -2.9575   -7.4666 C   0  0  0  0  0  0  0  0  0  0  0  0
   -3.3726   -1.7428   -7.6473 N   0  0  0  0  0  0  0  0  0  0  0  0
   -4.0041   -4.0399   -7.3809 C   0  0  0  0  0  0  0  0  0  0  0  0
   -5.2116   -3.8118   -7.7933 N   0  0  0  0  0  0  0  0  0  0  0  0
   -3.5269   -5.3557   -6.8289 C   0  0  1  0  0  0  0  0  0  0  0  0
   -2.2732   -5.7349   -7.4310 O   0  0  0  0  0  0  0  0  0  0  0  0
   -1.3059   -4.7671   -7.4718 C   0  0  0  0  0  0  0  0  0  0  0  0
    0.0119   -5.2068   -7.5829 C   0  0  0  0  0  0  0  0  0  0  0  0
    0.2501   -6.5224   -7.7133 F   0  0  0  0  0  0  0  0  0  0  0  0
   -3.4198   -5.3331   -5.3237 C   0  0  1  0  0  0  0  0  0  0  0  0
   -2.5125   -4.3739   -4.7303 O   0  0  0  0  0  0  0  0  0  0  0  0
   -4.6544   -5.5086   -4.6253 O   0  0  0  0  0  0  0  0  0  0  0  0
   -3.7024   -6.5664   -4.4891 C   0  0  3  0  0  0  0  0  0  0  0  0
   -3.0338   -6.6083   -3.2148 O   0  0  0  0  0  0  0  0  0  0  0  0
    1.3684   -1.0964   -2.5043 C   0  0  0  0  0  0  0  0  0  0  0  0
    1.9559   -2.1676   -2.5070 O   0  0  0  0  0  0  0  0  0  0  0  0
    0.6279   -0.5812   -1.2938 C   0  0  0  0  0  0  0  0  0  0  0  0
    0.9520   -0.9535   -0.1796 O   0  0  0  0  0  0  0  0  0  0  0  0
   -0.4674    0.4494   -1.4913 C   0  0  0  0  0  0  0  0  0  0  0  0
   -1.0199    0.9912   -0.5502 O   0  0  0  0  0  0  0  0  0  0  0  0
  1  2  1  0  0  0  0
  2  3  2  0  0  0  0
  3  4  1  0  0  0  0
  3 53  1  0  0  0  0
  4  5  1  0  0  0  0
  5  6  1  6  0  0  0
  5 49  1  0  0  0  0
  6  7  1  0  0  0  0
  7  8  2  0  0  0  0
  7 12  1  0  0  0  0
  8  9  1  0  0  0  0
  8 26  1  0  0  0  0
  9 10  1  0  0  0  0
 10 11  2  0  0  0  0
 10 22  1  0  0  0  0
 11 12  1  0  0  0  0
 11 13  1  0  0  0  0
 13 14  1  0  0  0  0
 13 20  1  0  0  0  0
 14 15  1  0  0  0  0
 15 16  2  0  0  0  0
 15 17  1  0  0  0  0
 17 18  1  0  0  0  0
 18 19  2  0  0  0  0
 18 20  1  0  0  0  0
 20 21  2  0  0  0  0
 21 22  1  0  0  0  0
 21 23  1  0  0  0  0
 23 24  1  0  0  0  0
 23 25  1  0  0  0  0
 24 25  1  0  0  0  0
 26 27  2  0  0  0  0
 26 32  1  0  0  0  0
 27 28  1  0  0  0  0
 28 29  1  0  0  0  0
 28 30  2  0  0  0  0
 30 31  1  0  0  0  0
 31 32  2  0  0  0  0
 31 42  1  0  0  0  0
 32 33  1  0  0  0  0
 33 34  2  0  0  0  0
 34 35  1  0  0  0  0
 34 41  1  0  0  0  0
 35 36  2  0  0  0  0
 35 37  1  0  0  0  0
 37 38  2  0  0  0  0
 39 37  1  6  0  0  0
 39 40  1  0  0  0  0
 39 44  1  0  0  0  0
 40 41  1  0  0  0  0
 41 42  2  0  0  0  0
 42 43  1  0  0  0  0
 44 45  1  1  0  0  0
 44 46  1  0  0  0  0
 44 47  1  0  0  0  0
 46 47  1  0  0  0  0
 47 48  1  0  0  0  0
 49 50  2  0  0  0  0
 49 51  1  0  0  0  0
 51 52  2  0  0  0  0
 51 53  1  0  0  0  0
 53 54  2  0  0  0  0
M  CHG  2  22   1  28   1
M  END
$$$$