
 OpenBabel11242001083D

 53 62  0  0  1  0  0  0  0  0999 V2000
    1.8826  -10.6125   -4.6053 O   0  0  0  0  0  0  0  0  0  0  0  0
    0.6950  -10.5039   -5.2832 C   0  0  0  0  0  0  0  0  0  0  0  0
    0.3745   -9.4285   -6.0116 C   0  0  0  0  0  0  0  0  0  0  0  0
    1.2377   -8.3447   -6.0898 O   0  0  0  0  0  0  0  0  0  0  0  0
    1.2065   -7.6892   -7.3558 C   0  0  2  0  0  0  0  0  0  0  0  0
    2.2184   -6.6694   -7.4432 O   0  0  0  0  0  0  0  0  0  0  0  0
    3.5263   -7.1237   -7.3058 C   0  0  0  0  0  0  0  0  0  0  0  0
    4.4936   -6.3360   -6.7878 C   0  0  0  0  0  0  0  0  0  0  0  0
    5.8301   -6.7378   -6.7230 O   0  0  0  0  0  0  0  0  0  0  0  0
    6.2358   -7.8657   -7.4213 C   0  0  0  0  0  0  0  0  0  0  0  0
    5.3569   -8.6805   -8.0255 C   0  0  0  0  0  0  0  0  0  0  0  0
    3.8827   -8.4710   -7.9020 C   0  0  0  0  0  0  0  0  0  0  0  0
    5.8360   -9.8617   -8.8322 C   0  0  3  0  0  0  0  0  0  0  0  0
    5.4250   -9.6526  -10.2158 N   0  0  0  0  0  0  0  0  0  0  0  0
    5.8203  -10.5721  -11.1306 C   0  0  0  0  0  0  0  0  0  0  0  0
    5.0938  -10.9009  -12.1351 N   0  0  0  0  0  0  0  0  0  0  0  0
    7.0700  -11.0558  -10.9794 N   0  0  0  0  0  0  0  0  0  0  0  0
    7.7289  -11.2016   -9.7030 C   0  0  0  0  0  0  0  0  0  0  0  0
    7.3323  -10.0391   -8.8469 C   0  0  0  0  0  0  0  0  0  0  0  0
    8.1482   -9.1858   -8.1866 C   0  0  0  0  0  0  0  0  0  0  0  0
    7.5817   -8.1122   -7.5054 N   0  0  0  0  0  0  0  0  0  0  0  0
    9.6279   -9.2911   -8.1283 C   0  0  0  0  0  0  0  0  0  0  0  0
   10.4211   -8.3737   -7.3506 O   0  0  0  0  0  0  0  0  0  0  0  0
   10.2978   -9.7500   -6.9434 O   0  0  0  0  0  0  0  0  0  0  0  0
    4.3048   -4.9116   -6.4308 C   0  0  0  0  0  0  0  0  0  0  0  0
    5.1227   -4.0205   -7.1235 C   0  0  0  0  0  0  0  0  0  0  0  0
    5.0265   -2.7050   -6.9294 N   0  3  0  0  0  0  0  0  0  0  0  0
    5.8380   -1.8807   -7.6185 F   0  0  0  0  0  0  0  0  0  0  0  0
    4.1593   -2.1752   -6.0911 N   0  0  0  0  0  0  0  0  0  0  0  0
    3.3482   -2.9713   -5.3876 C   0  0  0  0  0  0  0  0  0  0  0  0
    3.3822   -4.3752   -5.5039 C   0  0  0  0  0  0  0  0  0  0  0  0
    2.5047   -5.1320   -4.6840 C   0  0  0  0  0  0  0  0  0  0  0  0
    1.5961   -4.5044   -3.8143 C   0  0  0  0  0  0  0  0  0  0  0  0
    1.5634   -3.1310   -3.7157 C   0  0  0  0  0  0  0  0  0  0  0  0
    2.4451   -2.3872   -4.4985 C   0  0  0  0  0  0  0  0  0  0  0  0
    2.4293   -1.0485   -4.3899 F   0  0  0  0  0  0  0  0  0  0  0  0
    0.7795   -2.4589   -2.8243 O   0  0  0  0  0  0  0  0  0  0  0  0
   -0.4243   -3.1143   -2.3557 C   0  0  1  0  0  0  0  0  0  0  0  0
   -0.4889   -4.5906   -2.3457 C   0  0  0  0  0  0  0  0  0  0  0  0
   -1.4633   -5.2147   -1.9568 O   0  0  0  0  0  0  0  0  0  0  0  0
    0.6818   -5.2923   -2.9877 C   0  0  0  0  0  0  0  0  0  0  0  0
    0.8387   -6.4979   -2.8770 O   0  0  0  0  0  0  0  0  0  0  0  0
   -1.0348   -2.4944   -1.2494 O   0  0  0  0  0  0  0  0  0  0  0  0
   -1.7406   -2.4041   -2.5245 C   0  0  1  0  0  0  0  0  0  0  0  0
   -1.4803   -1.2220   -3.3803 O   0  0  0  0  0  0  0  0  0  0  0  0
   -2.4511   -1.1544   -2.4982 C   0  0  0  0  0  0  0  0  0  0  0  0
   -3.6187   -0.8479   -2.5989 O   0  0  0  0  0  0  0  0  0  0  0  0
   -0.1682   -7.0717   -7.5309 C   0  0  0  0  0  0  0  0  0  0  0  0
   -0.4302   -5.9092   -7.8044 O   0  0  0  0  0  0  0  0  0  0  0  0
   -1.2697   -8.0849   -7.3645 C   0  0  0  0  0  0  0  0  0  0  0  0
   -2.4699   -7.8161   -7.7818 N   0  0  0  0  0  0  0  0  0  0  0  0
   -0.9382   -9.4223   -6.7275 C   0  0  0  0  0  0  0  0  0  0  0  0
   -1.6482  -10.4023   -6.8642 O   0  0  0  0  0  0  0  0  0  0  0  0
  1  2  1  0  0  0  0
  2  3  2  0  0  0  0
  3  4  1  0  0  0  0
  3 52  1  0  0  0  0
  4  5  1  0  0  0  0
  5  6  1  1  0  0  0
  5 48  1  0  0  0  0
  6  7  1  0  0  0  0
  7  8  2  0  0  0  0
  7 12  1  0  0  0  0
  8  9  1  0  0  0  0
  8 25  1  0  0  0  0
  9 10  1  0  0  0  0
 10 11  2  0  0  0  0
 10 21  1  0  0  0  0
 11 12  1  0  0  0  0
 11 13  1  0  0  0  0
 13 14  1  0  0  0  0
 13 19  1  0  0  0  0
 14 15  1  0  0  0  0
 15 16  2  0  0  0  0
 15 17  1  0  0  0  0
 17 18  1  0  0  0  0
 18 19  1  0  0  0  0
 19 20  2  0  0  0  0
 20 21  1  0  0  0  0
 20 22  1  0  0  0  0
 22 23  1  0  0  0  0
 22 24  1  0  0  0  0
 23 24  1  0  0  0  0
 25 26  2  0  0  0  0
 25 31  1  0  0  0  0
 26 27  1  0  0  0  0
 27 28  1  0  0  0  0
 27 29  2  0  0  0  0
 29 30  1  0  0  0  0
 30 31  2  0  0  0  0
 30 35  1  0  0  0  0
 31 32  1  0  0  0  0
 32 33  2  0  0  0  0
 33 34  1  0  0  0  0
 33 41  1  0  0  0  0
 34 35  2  0  0  0  0
 34 37  1  0  0  0  0
 35 36  1  0  0  0  0
 38 37  1  6  0  0  0
 38 39  1  0  0  0  0
 38 43  1  0  0  0  0
 38 44  1  0  0  0  0
 39 40  2  0  0  0  0
 39 41  1  0  0  0  0
 41 42  2  0  0  0  0
 44 43  1  1  0  0  0
 44 45  1  0  0  0  0
 44 46  1  0  0  0  0
 45 46  1  0  0  0  0
 46 47  2  0  0  0  0
 48 49  2  0  0  0  0
 48 50  1  0  0  0  0
 50 51  2  0  0  0  0
 50 52  1  0  0  0  0
 52 53  2  0  0  0  0
M  CHG  1  27   1
M  END
$$$$