
 OpenBabel04032121493D

 70110  0  0  1  0  0  0  0  0999 V2000
   -4.7847    0.8424    0.5159 C   0  0  0  0  0  0  0  0  0  0  0  0
   -3.3067    1.5108    0.3647 C   0  0  3  0  0  0  0  0  0  0  0  0
   -3.1618    2.8911   -0.7638 C   0  0  3  0  0  0  0  0  0  0  0  0
   -3.2747    2.8590   -2.4254 C   0  0  0  0  0  0  0  0  0  0  0  0
   -2.2635    3.0042   -3.8424 C   0  0  3  0  0  0  0  0  0  0  0  0
   -0.5732    2.7842   -4.5095 C   0  0  3  0  0  0  0  0  0  0  0  0
   -1.0900    3.1070   -3.1880 C   0  0  3  0  0  0  0  0  0  0  0  0
   -0.9561    3.5378   -1.7081 C   0  0  3  0  0  0  0  0  0  0  0  0
   -1.7603    3.2773   -0.5325 C   0  0  3  0  0  0  0  0  0  0  0  0
   -0.6107    2.3098   -1.0348 C   0  0  3  0  0  0  0  0  0  0  0  0
   -0.4492    0.8052   -2.0518 Cl  0  1  3  0  0  0  0  0  0  0  0  0
   -1.4323   -0.0632   -0.6572 C   0  0  3  0  0  0  0  0  0  0  0  0
   -2.6171    0.3498   -0.0451 C   0  0  3  0  0  0  0  0  0  0  0  0
   -2.8981   -0.3411   -1.2609 C   0  0  3  0  0  0  0  0  0  0  0  0
   -4.2287   -0.7234   -0.9940 C   0  0  3  0  0  0  0  0  0  0  0  0
   -4.8950   -0.7847    0.2931 C   0  0  3  0  0  0  0  0  0  0  0  0
   -4.6415   -2.0374   -0.8522 C   0  0  3  0  0  0  0  0  0  0  0  0
   -5.2952   -2.2475   -2.2988 C   0  0  0  0  0  0  0  0  0  0  0  0
   -4.6448   -1.5264   -3.5647 C   0  0  3  0  0  0  0  0  0  0  0  0
   -4.6794   -0.1595   -3.3862 C   0  0  3  0  0  0  0  0  0  0  0  0
   -4.0423    0.3539   -2.1355 C   0  0  3  0  0  0  0  0  0  0  0  0
   -3.3321    0.4615   -3.6377 C   0  0  3  0  0  0  0  0  0  0  0  0
   -1.5036   -0.1922   -3.9120 Cl  0  1  3  0  0  0  0  0  0  0  0  0
   -1.8822   -1.6414   -5.3129 C   0  0  3  0  0  0  0  0  0  0  0  0
   -3.0456   -2.2337   -6.2284 C   0  0  3  0  0  0  0  0  0  0  0  0
   -3.3643   -2.1983   -5.0458 C   0  0  3  0  0  0  0  0  0  0  0  0
   -1.6331   -4.0354   -5.5153 C   0  0  0  0  0  0  0  0  0  0  0  0
   -2.2079   -4.8110   -4.4354 C   0  0  3  0  0  0  0  0  0  0  0  0
   -3.3294   -4.3479   -3.9521 C   0  0  3  0  0  0  0  0  0  0  0  0
   -3.2042   -2.7861   -4.6482 C   0  0  3  0  0  0  0  0  0  0  0  0
   -2.4629   -3.2942   -3.1302 C   0  0  3  0  0  0  0  0  0  0  0  0
   -1.5251   -2.0950   -2.5182 C   0  0  3  0  0  0  0  0  0  0  0  0
    0.5707   -0.5671   -2.9044 Cl  0  1  3  0  0  0  0  0  0  0  0  0
    2.4806    0.4997   -1.6429 Cl  0  1  3  0  0  0  0  0  0  0  0  0
    1.3784    2.3292   -2.3019 Cl  0  1  3  0  0  0  0  0  0  0  0  0
    0.1020    4.3583   -2.5006 C   0  0  3  0  0  0  0  0  0  0  0  0
   -1.0493    4.4334   -2.9349 C   0  0  3  0  0  0  0  0  0  0  0  0
    0.2038    5.1846   -3.7048 C   0  0  3  0  0  0  0  0  0  0  0  0
    1.5771    4.8440   -3.5724 C   0  0  3  0  0  0  0  0  0  0  0  0
    1.0301    3.5436   -4.6576 C   0  0  0  0  0  0  0  0  0  0  0  0
    2.0738    5.5023   -1.8664 C   0  0  3  0  0  0  0  0  0  0  0  0
    2.3031    4.2612   -1.1559 C   0  0  3  0  0  0  0  0  0  0  0  0
    2.9582    3.2594   -1.7224 C   0  0  3  0  0  0  0  0  0  0  0  0
    3.2825    3.8879   -0.2135 C   0  0  3  0  0  0  0  0  0  0  0  0
    2.4945    4.1641    1.2072 C   0  0  3  0  0  0  0  0  0  0  0  0
    2.9574    2.7117    0.6370 C   0  0  3  0  0  0  0  0  0  0  0  0
    3.4617    1.4161   -0.1129 C   0  0  3  0  0  0  0  0  0  0  0  0
    2.6254    1.2143    1.1115 C   0  0  3  0  0  0  0  0  0  0  0  0
    1.1518    0.5999    0.7115 C   0  0  3  0  0  0  0  0  0  0  0  0
    0.8373   -1.3371   -0.5032 C   0  0  3  0  0  0  0  0  0  0  0  0
    1.9226   -1.7809    0.1526 C   0  0  3  0  0  0  0  0  0  0  0  0
    3.0768   -1.0013   -0.4345 C   0  0  3  0  0  0  0  0  0  0  0  0
    2.7713   -2.5135   -1.0076 C   0  0  3  0  0  0  0  0  0  0  0  0
    3.6179   -2.7293   -2.0685 C   0  0  3  0  0  0  0  0  0  0  0  0
    2.6544   -1.8504   -2.6633 C   0  0  3  0  0  0  0  0  0  0  0  0
    2.6451   -3.5895   -1.2484 C   0  0  3  0  0  0  0  0  0  0  0  0
    0.9958   -4.9389   -1.2371 C   0  0  3  0  0  0  0  0  0  0  0  0
   -0.6874   -5.1633   -2.2212 C   0  0  3  0  0  0  0  0  0  0  0  0
   -1.6504   -3.7917   -2.0032 C   0  0  3  0  0  0  0  0  0  0  0  0
   -1.5049   -6.3298   -3.4431 C   0  0  0  0  0  0  0  0  0  0  0  0
   -2.7427   -5.8859   -4.4089 C   0  0  3  0  0  0  0  0  0  0  0  0
    1.7519   -6.0302   -1.7348 C   0  0  0  0  0  0  0  0  0  0  0  0
    2.2968   -5.2368   -2.9666 C   0  0  3  0  0  0  0  0  0  0  0  0
    2.8479   -3.7132   -2.6286 C   0  0  3  0  0  0  0  0  0  0  0  0
    1.5170   -3.8792   -3.4038 C   0  0  3  0  0  0  0  0  0  0  0  0
    0.6309   -2.8744   -2.2747 C   0  0  0  0  0  0  0  0  0  0  0  0
    0.6169    2.1216    1.6860 C   0  0  0  0  0  0  0  0  0  0  0  0
    0.9529    3.8573    1.4881 C   0  0  3  0  0  0  0  0  0  0  0  0
    1.4010    5.3671    0.9492 C   0  0  3  0  0  0  0  0  0  0  0  0
    1.0435    5.9552   -0.5222 C   0  0  0  0  0  0  0  0  0  0  0  0
  1  2  1  0  0  0  0
  1 16  1  0  0  0  0
  2  3  1  0  0  0  0
  2 13  1  0  0  0  0
  3  4  1  0  0  0  0
  3  9  1  0  0  0  0
  4  5  1  0  0  0  0
  5  6  1  0  0  0  0
  5  7  1  0  0  0  0
  6  7  1  0  0  0  0
  6 40  1  0  0  0  0
  7  8  1  0  0  0  0
  7 37  1  0  0  0  0
  8  9  1  0  0  0  0
  8 10  1  0  0  0  0
  8 37  1  0  0  0  0
  9 10  1  0  0  0  0
 10 11  1  0  0  0  0
 11 12  1  0  0  0  0
 11 23  1  0  0  0  0
 11 35  1  0  0  0  0
 12 13  1  0  0  0  0
 12 14  1  0  0  0  0
 13 14  1  0  0  0  0
 14 15  1  0  0  0  0
 14 21  1  0  0  0  0
 15 16  1  0  0  0  0
 15 17  1  0  0  0  0
 15 21  1  0  0  0  0
 16 17  1  0  0  0  0
 17 18  1  0  0  0  0
 18 19  1  0  0  0  0
 19 20  1  0  0  0  0
 19 26  1  0  0  0  0
 20 21  1  0  0  0  0
 20 22  1  0  0  0  0
 21 22  1  0  0  0  0
 22 23  1  0  0  0  0
 23 24  1  0  0  0  0
 23 33  1  0  0  0  0
 24 25  1  0  0  0  0
 24 30  1  0  0  0  0
 25 26  1  0  0  0  0
 25 30  1  0  0  0  0
 26 27  1  0  0  0  0
 27 28  1  0  0  0  0
 28 29  1  0  0  0  0
 28 61  1  0  0  0  0
 29 30  1  0  0  0  0
 29 31  1  0  0  0  0
 29 61  1  0  0  0  0
 30 31  1  0  0  0  0
 31 32  1  0  0  0  0
 31 59  1  0  0  0  0
 32 33  1  0  0  0  0
 32 59  1  0  0  0  0
 33 34  1  0  0  0  0
 33 55  1  0  0  0  0
 34 35  1  0  0  0  0
 34 47  1  0  0  0  0
 34 52  1  0  0  0  0
 35 36  1  0  0  0  0
 35 43  1  0  0  0  0
 36 37  1  0  0  0  0
 36 38  1  0  0  0  0
 37 38  1  0  0  0  0
 38 39  1  0  0  0  0
 39 40  1  0  0  0  0
 39 41  1  0  0  0  0
 41 42  1  0  0  0  0
 41 70  1  0  0  0  0
 42 43  1  0  0  0  0
 42 44  1  0  0  0  0
 43 44  1  0  0  0  0
 44 45  1  0  0  0  0
 44 46  1  0  0  0  0
 45 46  1  0  0  0  0
 45 68  1  0  0  0  0
 45 69  1  0  0  0  0
 46 47  1  0  0  0  0
 46 48  1  0  0  0  0
 47 48  1  0  0  0  0
 48 49  1  0  0  0  0
 49 50  1  0  0  0  0
 49 67  1  0  0  0  0
 50 51  1  0  0  0  0
 50 66  1  0  0  0  0
 51 52  1  0  0  0  0
 51 53  1  0  0  0  0
 52 53  1  0  0  0  0
 53 54  1  0  0  0  0
 53 64  1  0  0  0  0
 54 55  1  0  0  0  0
 54 56  1  0  0  0  0
 54 64  1  0  0  0  0
 55 56  1  0  0  0  0
 56 57  1  0  0  0  0
 57 58  1  0  0  0  0
 57 62  1  0  0  0  0
 58 59  1  0  0  0  0
 58 60  1  0  0  0  0
 60 61  1  0  0  0  0
 62 63  1  0  0  0  0
 63 64  1  0  0  0  0
 63 65  1  0  0  0  0
 64 65  1  0  0  0  0
 65 66  1  0  0  0  0
 67 68  1  0  0  0  0
 68 69  1  0  0  0  0
 69 70  1  0  0  0  0
M  CHG  5  11   3  23   3  33   3  34   3  35   3
M  END
$$$$