
 OpenBabel11152013313D

 54 62  0  0  1  0  0  0  0  0999 V2000
    3.6717    6.1274   -4.9342 O   0  0  0  0  0  0  0  0  0  0  0  0
    2.8053    5.0669   -4.9441 C   0  0  0  0  0  0  0  0  0  0  0  0
    2.3811    4.4703   -3.8237 C   0  0  0  0  0  0  0  0  0  0  0  0
    2.8413    4.8758   -2.5879 O   0  0  0  0  0  0  0  0  0  0  0  0
    1.9544    4.5837   -1.5102 C   0  0  2  0  0  0  0  0  0  0  0  0
    2.4655    5.1039   -0.2762 O   0  0  0  0  0  0  0  0  0  0  0  0
    2.6427    6.4825   -0.1932 C   0  0  0  0  0  0  0  0  0  0  0  0
    3.5944    7.0214    0.5992 C   0  0  0  0  0  0  0  0  0  0  0  0
    3.7958    8.3924    0.7240 O   0  0  0  0  0  0  0  0  0  0  0  0
    2.9181    9.2788    0.1076 C   0  0  0  0  0  0  0  0  0  0  0  0
    1.9031    8.8421   -0.6557 C   0  0  0  0  0  0  0  0  0  0  0  0
    1.6956    7.3859   -0.9411 C   0  0  0  0  0  0  0  0  0  0  0  0
    0.9347    9.7904   -1.2893 C   0  0  3  0  0  0  0  0  0  0  0  0
   -0.3565    9.4972   -0.7648 O   0  0  0  0  0  0  0  0  0  0  0  0
   -1.3953   10.3354   -1.0009 C   0  0  0  0  0  0  0  0  0  0  0  0
   -2.5487    9.9938   -0.7770 O   0  0  0  0  0  0  0  0  0  0  0  0
   -1.1023   11.5732   -1.4656 O   0  0  0  0  0  0  0  0  0  0  0  0
    0.2210   12.0646   -1.6535 C   0  0  3  0  0  0  0  0  0  0  0  0
    1.2343   11.2058   -1.0041 C   0  0  0  0  0  0  0  0  0  0  0  0
    2.2892   11.5935   -0.2573 C   0  0  0  0  0  0  0  0  0  0  0  0
    3.1363   10.6368    0.3188 O   0  0  0  0  0  0  0  0  0  0  0  0
    2.6498   13.0032    0.0132 C   0  0  0  0  0  0  0  0  0  0  0  0
    3.9240   13.5430   -0.3763 O   0  0  0  0  0  0  0  0  0  0  0  0
    2.7233   13.9919   -1.0299 O   0  0  0  0  0  0  0  0  0  0  0  0
    0.4970   12.0829   -3.0430 O   0  0  0  0  0  0  0  0  0  0  0  0
    4.5070    6.2134    1.4278 C   0  0  0  0  0  0  0  0  0  0  0  0
    4.0892    6.0329    2.6980 N   0  0  0  0  0  0  0  0  0  0  0  0
    4.8103    5.3118    3.5067 N   0  0  0  0  0  0  0  0  0  0  0  0
    5.9253    4.7342    3.1215 N   0  0  0  0  0  0  0  0  0  0  0  0
    6.3769    4.8746    1.8653 C   0  0  0  0  0  0  0  0  0  0  0  0
    5.6899    5.6603    0.9430 C   0  0  0  0  0  0  0  0  0  0  0  0
    6.2020    5.8311   -0.3704 C   0  0  0  0  0  0  0  0  0  0  0  0
    7.3467    5.1434   -0.7761 C   0  0  0  0  0  0  0  0  0  0  0  0
    7.8521    5.2781   -2.1470 C   0  0  0  0  0  0  0  0  0  0  0  0
    7.3853    6.0890   -2.9304 O   0  0  0  0  0  0  0  0  0  0  0  0
    8.9651    4.3419   -2.5591 C   0  0  0  0  0  0  0  0  0  0  0  0
    9.5547    4.4920   -3.6200 O   0  0  0  0  0  0  0  0  0  0  0  0
    9.1919    3.1897   -1.6127 C   0  0  1  0  0  0  0  0  0  0  0  0
    9.0820    3.5330   -0.2213 O   0  0  0  0  0  0  0  0  0  0  0  0
    8.0000    4.3038    0.1102 C   0  0  0  0  0  0  0  0  0  0  0  0
    7.5388    4.2188    1.4290 C   0  0  0  0  0  0  0  0  0  0  0  0
    8.2383    3.4300    2.3173 O   0  0  0  0  0  0  0  0  0  0  0  0
    8.3057    2.0210   -1.9477 C   0  0  1  0  0  0  0  0  0  0  0  0
    6.8792    2.2376   -1.9055 O   0  0  0  0  0  0  0  0  0  0  0  0
    8.7330    1.1840   -3.0237 O   0  0  0  0  0  0  0  0  0  0  0  0
    8.8034    0.6588   -1.7844 C   0  0  0  0  0  0  0  0  0  0  0  0
    9.7497    0.2118   -1.1802 O   0  0  0  0  0  0  0  0  0  0  0  0
    1.8134    3.0641   -1.4447 C   0  0  0  0  0  0  0  0  0  0  0  0
    2.0419    2.4124   -0.4236 O   0  0  0  0  0  0  0  0  0  0  0  0
    1.2609    2.4510   -2.7171 C   0  0  3  0  0  0  0  0  0  0  0  0
    1.4375    3.3177   -3.9518 C   0  0  0  0  0  0  0  0  0  0  0  0
    0.8611    3.1006   -5.0185 O   0  0  0  0  0  0  0  0  0  0  0  0
   -0.0587    2.1316   -2.5469 F   0  0  0  0  0  0  0  0  0  0  0  0
    2.1668    0.9354   -3.0491 Cl  0  0  0  0  0  0  0  0  0  0  0  0
  1  2  1  0  0  0  0
  2  3  2  0  0  0  0
  3  4  1  0  0  0  0
  3 51  1  0  0  0  0
  4  5  1  0  0  0  0
  5  6  1  1  0  0  0
  5 48  1  0  0  0  0
  6  7  1  0  0  0  0
  7  8  2  0  0  0  0
  7 12  1  0  0  0  0
  8  9  1  0  0  0  0
  8 26  1  0  0  0  0
  9 10  1  0  0  0  0
 10 11  2  0  0  0  0
 10 21  1  0  0  0  0
 11 12  1  0  0  0  0
 11 13  1  0  0  0  0
 13 14  1  0  0  0  0
 13 19  1  0  0  0  0
 14 15  1  0  0  0  0
 15 16  2  0  0  0  0
 15 17  1  0  0  0  0
 17 18  1  0  0  0  0
 18 19  1  0  0  0  0
 18 25  1  0  0  0  0
 19 20  2  0  0  0  0
 20 21  1  0  0  0  0
 20 22  1  0  0  0  0
 22 23  1  0  0  0  0
 22 24  1  0  0  0  0
 23 24  1  0  0  0  0
 26 27  2  0  0  0  0
 26 31  1  0  0  0  0
 27 28  1  0  0  0  0
 28 29  2  0  0  0  0
 29 30  1  0  0  0  0
 30 31  2  0  0  0  0
 30 41  1  0  0  0  0
 31 32  1  0  0  0  0
 32 33  2  0  0  0  0
 33 34  1  0  0  0  0
 33 40  1  0  0  0  0
 34 35  2  0  0  0  0
 34 36  1  0  0  0  0
 36 37  2  0  0  0  0
 38 36  1  6  0  0  0
 38 39  1  0  0  0  0
 38 43  1  0  0  0  0
 39 40  1  0  0  0  0
 40 41  2  0  0  0  0
 41 42  1  0  0  0  0
 43 44  1  1  0  0  0
 43 45  1  0  0  0  0
 43 46  1  0  0  0  0
 45 46  1  0  0  0  0
 46 47  2  0  0  0  0
 48 49  2  0  0  0  0
 48 50  1  0  0  0  0
 50 51  1  0  0  0  0
 50 53  1  0  0  0  0
 50 54  1  0  0  0  0
 51 52  2  0  0  0  0
M  END
$$$$