
 OpenBabel09232009453D

 51 59  0  0  1  0  0  0  0  0999 V2000
    2.1254   -6.8750   -0.1998 S   0  0  0  0  0  0  0  0  0  0  0  0
    1.0298   -5.5528   -0.4477 C   0  0  0  0  0  0  0  0  0  0  0  0
    0.9002   -4.5516    0.4374 C   0  0  0  0  0  0  0  0  0  0  0  0
    1.6090   -4.5445    1.6122 O   0  0  0  0  0  0  0  0  0  0  0  0
    1.9480   -3.3056    2.1946 C   0  0  2  0  0  0  0  0  0  0  0  0
    2.5375   -3.4245    3.5218 O   0  0  0  0  0  0  0  0  0  0  0  0
    2.1449   -4.4179    4.4113 C   0  0  0  0  0  0  0  0  0  0  0  0
    2.2771   -4.2562    5.7476 C   0  0  0  0  0  0  0  0  0  0  0  0
    2.0221   -5.2763    6.6626 O   0  0  0  0  0  0  0  0  0  0  0  0
    1.9554   -6.5810    6.1982 C   0  0  0  0  0  0  0  0  0  0  0  0
    1.7166   -6.8602    4.8693 C   0  0  0  0  0  0  0  0  0  0  0  0
    1.6381   -5.7430    3.8879 C   0  0  0  0  0  0  0  0  0  0  0  0
    1.6002   -8.2026    4.4990 C   0  0  0  0  0  0  0  0  0  0  0  0
    1.2630   -8.5606    3.1872 N   0  0  0  0  0  0  0  0  0  0  0  0
    1.1175   -9.8353    2.7415 C   0  0  0  0  0  0  0  0  0  0  0  0
    0.7965  -10.0670    1.5812 O   0  0  0  0  0  0  0  0  0  0  0  0
    1.3198  -10.8276    3.6364 N   0  0  0  0  0  0  0  0  0  0  0  0
    1.8300  -10.6442    4.9722 C   0  0  0  0  0  0  0  0  0  0  0  0
    1.8338   -9.2141    5.4296 C   0  0  0  0  0  0  0  0  0  0  0  0
    2.1368   -8.8497    6.7505 C   0  0  0  0  0  0  0  0  0  0  0  0
    2.1403   -7.5340    7.1302 N   0  0  0  0  0  0  0  0  0  0  0  0
    2.4624   -9.8825    7.8079 C   0  0  0  0  0  0  0  0  0  0  0  0
    3.5946  -10.7398    7.5864 O   0  0  0  0  0  0  0  0  0  0  0  0
    3.6644   -9.6926    8.5722 O   0  0  0  0  0  0  0  0  0  0  0  0
    2.6982   -2.9828    6.3928 C   0  0  0  0  0  0  0  0  0  0  0  0
    4.0284   -2.8700    6.6107 N   0  0  0  0  0  0  0  0  0  0  0  0
    4.4357   -1.7300    7.1588 C   0  0  0  0  0  0  0  0  0  0  0  0
    3.6392   -0.7194    7.4916 N   0  0  0  0  0  0  0  0  0  0  0  0
    2.3382   -0.8788    7.2556 C   0  0  0  0  0  0  0  0  0  0  0  0
    1.7904   -2.0189    6.7193 N   0  3  0  0  0  0  0  0  0  0  0  0
    0.4484   -2.1104    6.5428 C   0  0  0  0  0  0  0  0  0  0  0  0
   -0.3851   -1.0247    6.8080 C   0  0  0  0  0  0  0  0  0  0  0  0
    0.1376    0.1439    7.3108 C   0  0  0  0  0  0  0  0  0  0  0  0
    1.5007    0.1909    7.5654 C   0  0  0  0  0  0  0  0  0  0  0  0
   -0.5950    1.2597    7.5925 O   0  0  0  0  0  0  0  0  0  0  0  0
   -1.8669    1.3879    6.9242 C   0  0  2  0  0  0  0  0  0  0  0  0
   -2.6562    0.0992    6.8303 C   0  0  0  0  0  0  0  0  0  0  0  0
   -3.8684    0.0121    6.9441 O   0  0  0  0  0  0  0  0  0  0  0  0
   -1.8158   -1.1286    6.5530 C   0  0  0  0  0  0  0  0  0  0  0  0
   -2.2790   -2.1831    6.1543 O   0  0  0  0  0  0  0  0  0  0  0  0
   -1.6766    1.9969    5.5732 C   0  0  3  0  0  0  0  0  0  0  0  0
   -0.8023    1.2818    4.6650 O   0  0  0  0  0  0  0  0  0  0  0  0
   -2.8455    2.5667    4.9896 O   0  0  0  0  0  0  0  0  0  0  0  0
   -1.8491    3.4266    5.2940 C   0  0  0  0  0  0  0  0  0  0  0  0
   -1.1925    4.1429    4.5823 O   0  0  0  0  0  0  0  0  0  0  0  0
    0.8222   -2.2901    2.2932 C   0  0  0  0  0  0  0  0  0  0  0  0
    0.8004   -1.3516    3.0825 O   0  0  0  0  0  0  0  0  0  0  0  0
   -0.3083   -2.5466    1.3288 C   0  0  0  0  0  0  0  0  0  0  0  0
   -1.4002   -2.0453    1.5419 O   0  0  0  0  0  0  0  0  0  0  0  0
   -0.1000   -3.4893    0.1636 C   0  0  0  0  0  0  0  0  0  0  0  0
   -0.7003   -3.3593   -0.8866 O   0  0  0  0  0  0  0  0  0  0  0  0
  1  2  1  0  0  0  0
  2  3  2  0  0  0  0
  3  4  1  0  0  0  0
  3 50  1  0  0  0  0
  4  5  1  0  0  0  0
  5  6  1  1  0  0  0
  5 46  1  0  0  0  0
  6  7  1  0  0  0  0
  7  8  2  0  0  0  0
  7 12  1  0  0  0  0
  8  9  1  0  0  0  0
  8 25  1  0  0  0  0
  9 10  1  0  0  0  0
 10 11  2  0  0  0  0
 10 21  1  0  0  0  0
 11 12  1  0  0  0  0
 11 13  1  0  0  0  0
 13 14  1  0  0  0  0
 13 19  2  0  0  0  0
 14 15  1  0  0  0  0
 15 16  2  0  0  0  0
 15 17  1  0  0  0  0
 17 18  1  0  0  0  0
 18 19  1  0  0  0  0
 19 20  1  0  0  0  0
 20 21  2  0  0  0  0
 20 22  1  0  0  0  0
 22 23  1  0  0  0  0
 22 24  1  0  0  0  0
 23 24  1  0  0  0  0
 25 26  2  0  0  0  0
 25 30  1  0  0  0  0
 26 27  1  0  0  0  0
 27 28  2  0  0  0  0
 28 29  1  0  0  0  0
 29 30  2  0  0  0  0
 29 34  1  0  0  0  0
 30 31  1  0  0  0  0
 31 32  2  0  0  0  0
 32 33  1  0  0  0  0
 32 39  1  0  0  0  0
 33 34  2  0  0  0  0
 33 35  1  0  0  0  0
 36 35  1  6  0  0  0
 36 37  1  0  0  0  0
 36 41  1  0  0  0  0
 37 38  2  0  0  0  0
 37 39  1  0  0  0  0
 39 40  2  0  0  0  0
 41 42  1  0  0  0  0
 41 43  1  0  0  0  0
 41 44  1  0  0  0  0
 43 44  1  0  0  0  0
 44 45  2  0  0  0  0
 46 47  2  0  0  0  0
 46 48  1  0  0  0  0
 48 49  2  0  0  0  0
 48 50  1  0  0  0  0
 50 51  2  0  0  0  0
M  CHG  1  30   1
M  END
$$$$