
 OpenBabel11232018133D

 52 60  0  0  1  0  0  0  0  0999 V2000
    3.7345    7.5772   -3.5231 O   0  0  0  0  0  0  0  0  0  0  0  0
    3.5125    6.2826   -3.9119 C   0  0  0  0  0  0  0  0  0  0  0  0
    3.3187    5.2895   -3.0367 C   0  0  0  0  0  0  0  0  0  0  0  0
    3.4013    5.5015   -1.6754 O   0  0  0  0  0  0  0  0  0  0  0  0
    2.4128    4.8240   -0.9048 C   0  0  2  0  0  0  0  0  0  0  0  0
    2.6772    5.0156    0.4980 O   0  0  0  0  0  0  0  0  0  0  0  0
    2.5335    6.3069    0.9996 C   0  0  0  0  0  0  0  0  0  0  0  0
    3.2633    6.7462    2.0502 C   0  0  0  0  0  0  0  0  0  0  0  0
    3.0817    7.9957    2.6354 O   0  0  0  0  0  0  0  0  0  0  0  0
    2.0864    8.8313    2.1615 C   0  0  0  0  0  0  0  0  0  0  0  0
    1.3136    8.5008    1.1155 C   0  0  0  0  0  0  0  0  0  0  0  0
    1.4768    7.2022    0.3952 C   0  0  0  0  0  0  0  0  0  0  0  0
    0.2546    9.4500    0.6171 C   0  0  3  0  0  0  0  0  0  0  0  0
   -0.9921    8.7655    0.6911 O   0  0  0  0  0  0  0  0  0  0  0  0
   -2.1448    9.4363    0.4574 C   0  0  0  0  0  0  0  0  0  0  0  0
   -3.1980    8.8417    0.2715 O   0  0  0  0  0  0  0  0  0  0  0  0
   -2.0807   10.7888    0.4321 O   0  0  0  0  0  0  0  0  0  0  0  0
   -0.9505   11.5433    0.8571 C   0  0  3  0  0  0  0  0  0  0  0  0
    0.1327   10.7041    1.4098 C   0  0  0  0  0  0  0  0  0  0  0  0
    0.9352   10.9670    2.4687 C   0  0  0  0  0  0  0  0  0  0  0  0
    1.9108   10.0320    2.7992 N   0  0  0  0  0  0  0  0  0  0  0  0
    0.8953   12.1976    3.2806 C   0  0  3  0  0  0  0  0  0  0  0  0
    1.2519   12.1153    4.6588 N   0  0  0  0  0  0  0  0  0  0  0  0
    0.0419   12.2683    4.4129 N   0  0  0  0  0  0  0  0  0  0  0  0
   -0.4194   12.2215   -0.2713 O   0  0  0  0  0  0  0  0  0  0  0  0
    4.3353    5.9725    2.6973 C   0  0  0  0  0  0  0  0  0  0  0  0
    4.0114    5.1386    3.7559 C   0  0  0  0  0  0  0  0  0  0  0  0
    4.9296    4.4114    4.4176 N   0  0  0  0  0  0  0  0  0  0  0  0
    6.2382    4.4851    4.0411 N   0  0  0  0  0  0  0  0  0  0  0  0
    6.6251    5.2908    3.0444 C   0  0  0  0  0  0  0  0  0  0  0  0
    5.6987    6.0833    2.3336 C   0  0  0  0  0  0  0  0  0  0  0  0
    6.1878    6.9511    1.3252 C   0  0  0  0  0  0  0  0  0  0  0  0
    7.5537    6.9988    1.0270 C   0  0  0  0  0  0  0  0  0  0  0  0
    8.4422    6.1671    1.6920 C   0  0  0  0  0  0  0  0  0  0  0  0
    7.9738    5.3425    2.7111 C   0  0  0  0  0  0  0  0  0  0  0  0
    9.7785    6.0932    1.4146 O   0  0  0  0  0  0  0  0  0  0  0  0
   10.1537    6.4707    0.0812 C   0  0  2  0  0  0  0  0  0  0  0  0
    9.5303    7.7689   -0.3669 C   0  0  0  0  0  0  0  0  0  0  0  0
   10.0991    8.6165   -1.0407 O   0  0  0  0  0  0  0  0  0  0  0  0
    8.0734    7.9247    0.0126 C   0  0  0  0  0  0  0  0  0  0  0  0
    7.3700    8.7730   -0.5122 O   0  0  0  0  0  0  0  0  0  0  0  0
    9.8855    5.3517   -0.8911 C   0  0  1  0  0  0  0  0  0  0  0  0
    8.5231    4.8820   -1.0005 O   0  0  0  0  0  0  0  0  0  0  0  0
   10.5608    5.4316   -2.1473 O   0  0  0  0  0  0  0  0  0  0  0  0
   10.9512    4.4569   -1.3127 C   0  0  0  0  0  0  0  0  0  0  0  0
   12.0543    4.2110   -0.8595 O   0  0  0  0  0  0  0  0  0  0  0  0
    2.3175    3.3211   -1.1682 C   0  0  0  0  0  0  0  0  0  0  0  0
    1.6976    2.5166   -0.4862 O   0  0  0  0  0  0  0  0  0  0  0  0
    2.9500    2.8940   -2.4682 C   0  0  0  0  0  0  0  0  0  0  0  0
    3.3548    1.7540   -2.6276 O   0  0  0  0  0  0  0  0  0  0  0  0
    3.1043    3.9191   -3.5641 C   0  0  0  0  0  0  0  0  0  0  0  0
    3.0359    3.6281   -4.7452 O   0  0  0  0  0  0  0  0  0  0  0  0
  1  2  1  0  0  0  0
  2  3  2  0  0  0  0
  3  4  1  0  0  0  0
  3 51  1  0  0  0  0
  4  5  1  0  0  0  0
  5  6  1  1  0  0  0
  5 47  1  0  0  0  0
  6  7  1  0  0  0  0
  7  8  2  0  0  0  0
  7 12  1  0  0  0  0
  8  9  1  0  0  0  0
  8 26  1  0  0  0  0
  9 10  1  0  0  0  0
 10 11  2  0  0  0  0
 10 21  1  0  0  0  0
 11 12  1  0  0  0  0
 11 13  1  0  0  0  0
 13 14  1  0  0  0  0
 13 19  1  0  0  0  0
 14 15  1  0  0  0  0
 15 16  2  0  0  0  0
 15 17  1  0  0  0  0
 17 18  1  0  0  0  0
 18 19  1  0  0  0  0
 18 25  1  0  0  0  0
 19 20  2  0  0  0  0
 20 21  1  0  0  0  0
 20 22  1  0  0  0  0
 22 23  1  0  0  0  0
 22 24  1  0  0  0  0
 23 24  2  0  0  0  0
 26 27  2  0  0  0  0
 26 31  1  0  0  0  0
 27 28  1  0  0  0  0
 28 29  2  0  0  0  0
 29 30  1  0  0  0  0
 30 31  2  0  0  0  0
 30 35  1  0  0  0  0
 31 32  1  0  0  0  0
 32 33  2  0  0  0  0
 33 34  1  0  0  0  0
 33 40  1  0  0  0  0
 34 35  2  0  0  0  0
 34 36  1  0  0  0  0
 37 36  1  1  0  0  0
 37 38  1  0  0  0  0
 37 42  1  0  0  0  0
 38 39  2  0  0  0  0
 38 40  1  0  0  0  0
 40 41  2  0  0  0  0
 42 43  1  6  0  0  0
 42 44  1  0  0  0  0
 42 45  1  0  0  0  0
 44 45  1  0  0  0  0
 45 46  2  0  0  0  0
 47 48  2  0  0  0  0
 47 49  1  0  0  0  0
 49 50  2  0  0  0  0
 49 51  1  0  0  0  0
 51 52  2  0  0  0  0
M  END
$$$$