
 OpenBabel11242001543D

 53 60  0  0  1  0  0  0  0  0999 V2000
   -1.7694    4.1616   -2.9389 O   0  0  0  0  0  0  0  0  0  0  0  0
   -1.5213    3.1932   -1.9967 C   0  0  0  0  0  0  0  0  0  0  0  0
   -0.5423    2.2917   -2.1313 C   0  0  0  0  0  0  0  0  0  0  0  0
    0.2367    2.2821   -3.2756 O   0  0  0  0  0  0  0  0  0  0  0  0
    1.5997    1.9681   -3.0372 C   0  0  2  0  0  0  0  0  0  0  0  0
    2.3482    2.0222   -4.2679 O   0  0  0  0  0  0  0  0  0  0  0  0
    2.3851    3.2269   -4.9547 C   0  0  0  0  0  0  0  0  0  0  0  0
    2.5163    3.2628   -6.3021 C   0  0  0  0  0  0  0  0  0  0  0  0
    2.5594    4.4792   -7.0046 O   0  0  0  0  0  0  0  0  0  0  0  0
    2.5144    5.6980   -6.3164 C   0  0  0  0  0  0  0  0  0  0  0  0
    2.4781    5.7295   -4.9727 C   0  0  0  0  0  0  0  0  0  0  0  0
    2.3734    4.4925   -4.1410 C   0  0  0  0  0  0  0  0  0  0  0  0
    2.5273    7.0124   -4.1970 C   0  0  3  0  0  0  0  0  0  0  0  0
    3.7604    7.0187   -3.5012 O   0  0  0  0  0  0  0  0  0  0  0  0
    4.0797    8.1275   -2.7783 C   0  0  0  0  0  0  0  0  0  0  0  0
    4.9670    8.1040   -1.9482 O   0  0  0  0  0  0  0  0  0  0  0  0
    3.3550    9.2407   -3.0499 O   0  0  0  0  0  0  0  0  0  0  0  0
    2.5901    9.4186   -4.2393 C   0  0  3  0  0  0  0  0  0  0  0  0
    2.5433    8.1946   -5.0803 C   0  0  0  0  0  0  0  0  0  0  0  0
    2.5284    8.1087   -6.4289 C   0  0  0  0  0  0  0  0  0  0  0  0
    2.5238    6.8660   -7.0538 O   0  3  0  0  0  0  0  0  0  0  0  0
    2.5459    9.2893   -7.3232 C   0  0  0  0  0  0  0  0  0  0  0  0
    3.7848    9.8421   -7.7838 O   0  0  0  0  0  0  0  0  0  0  0  0
    2.9188    9.1505   -8.7046 O   0  0  0  0  0  0  0  0  0  0  0  0
    1.2421    9.6612   -3.8870 O   0  0  0  0  0  0  0  0  0  0  0  0
    2.6587    2.0221   -7.1418 C   0  0  0  0  0  0  0  0  0  0  0  0
    3.3874    0.9435   -6.6218 C   0  0  0  0  0  0  0  0  0  0  0  0
    3.5384   -0.1947   -7.3028 N   0  3  0  0  0  0  0  0  0  0  0  0
    4.2171   -1.2116   -6.7367 F   0  0  0  0  0  0  0  0  0  0  0  0
    3.0534   -0.3612   -8.5137 N   0  0  0  0  0  0  0  0  0  0  0  0
    2.3676    0.6239   -9.0940 C   0  0  0  0  0  0  0  0  0  0  0  0
    2.1283    1.8588   -8.4504 C   0  0  0  0  0  0  0  0  0  0  0  0
    1.3763    2.8278   -9.1651 C   0  0  0  0  0  0  0  0  0  0  0  0
    0.9065    2.5870  -10.4655 C   0  0  0  0  0  0  0  0  0  0  0  0
    0.2357    3.6496  -11.2213 C   0  0  0  0  0  0  0  0  0  0  0  0
    0.1219    4.7629  -10.7315 O   0  0  0  0  0  0  0  0  0  0  0  0
   -0.2569    3.2925  -12.6120 C   0  0  0  0  0  0  0  0  0  0  0  0
   -0.4815    4.1919  -13.4005 O   0  0  0  0  0  0  0  0  0  0  0  0
   -0.4626    1.8089  -12.7951 C   0  0  3  0  0  0  0  0  0  0  0  0
    0.6806    1.0612  -12.3233 O   0  0  0  0  0  0  0  0  0  0  0  0
    1.1204    1.3675  -11.0702 C   0  0  0  0  0  0  0  0  0  0  0  0
    1.8648    0.4123  -10.3798 C   0  0  0  0  0  0  0  0  0  0  0  0
    2.1032   -0.7679  -10.9731 F   0  0  0  0  0  0  0  0  0  0  0  0
   -0.8146    1.4054  -14.2267 C   0  0  0  0  0  0  0  0  0  0  0  0
   -0.8856    2.4168  -15.1054 F   0  0  0  0  0  0  0  0  0  0  0  0
    0.0845    0.5172  -14.7151 F   0  0  0  0  0  0  0  0  0  0  0  0
   -2.0192    0.7805  -14.2299 F   0  0  0  0  0  0  0  0  0  0  0  0
    1.6957    0.5588   -2.4950 C   0  0  0  0  0  0  0  0  0  0  0  0
    2.3445   -0.3468   -2.9995 O   0  0  0  0  0  0  0  0  0  0  0  0
    0.8763    0.3927   -1.2387 C   0  0  0  0  0  0  0  0  0  0  0  0
    1.2419   -0.3912   -0.3811 O   0  0  0  0  0  0  0  0  0  0  0  0
   -0.3326    1.2940   -1.0366 C   0  0  0  0  0  0  0  0  0  0  0  0
   -1.0332    1.2238   -0.0431 O   0  0  0  0  0  0  0  0  0  0  0  0
  1  2  1  0  0  0  0
  2  3  2  0  0  0  0
  3  4  1  0  0  0  0
  3 52  1  0  0  0  0
  4  5  1  0  0  0  0
  5  6  1  6  0  0  0
  5 48  1  0  0  0  0
  6  7  1  0  0  0  0
  7  8  2  0  0  0  0
  7 12  1  0  0  0  0
  8  9  1  0  0  0  0
  8 26  1  0  0  0  0
  9 10  1  0  0  0  0
 10 11  2  0  0  0  0
 10 21  1  0  0  0  0
 11 12  1  0  0  0  0
 11 13  1  0  0  0  0
 13 14  1  0  0  0  0
 13 19  1  0  0  0  0
 14 15  1  0  0  0  0
 15 16  2  0  0  0  0
 15 17  1  0  0  0  0
 17 18  1  0  0  0  0
 18 19  1  0  0  0  0
 18 25  1  0  0  0  0
 19 20  2  0  0  0  0
 20 21  1  0  0  0  0
 20 22  1  0  0  0  0
 22 23  1  0  0  0  0
 22 24  1  0  0  0  0
 23 24  1  0  0  0  0
 26 27  2  0  0  0  0
 26 32  1  0  0  0  0
 27 28  1  0  0  0  0
 28 29  1  0  0  0  0
 28 30  2  0  0  0  0
 30 31  1  0  0  0  0
 31 32  2  0  0  0  0
 31 42  1  0  0  0  0
 32 33  1  0  0  0  0
 33 34  2  0  0  0  0
 34 35  1  0  0  0  0
 34 41  1  0  0  0  0
 35 36  2  0  0  0  0
 35 37  1  0  0  0  0
 37 38  2  0  0  0  0
 37 39  1  0  0  0  0
 39 40  1  0  0  0  0
 39 44  1  0  0  0  0
 40 41  1  0  0  0  0
 41 42  2  0  0  0  0
 42 43  1  0  0  0  0
 44 45  1  0  0  0  0
 44 46  1  0  0  0  0
 44 47  1  0  0  0  0
 48 49  2  0  0  0  0
 48 50  1  0  0  0  0
 50 51  2  0  0  0  0
 50 52  1  0  0  0  0
 52 53  2  0  0  0  0
M  CHG  2  21   1  28   1
M  END
$$$$