
 OpenBabel11232002503D

 54 62  0  0  1  0  0  0  0  0999 V2000
   -2.6540    3.6636   -3.0428 O   0  0  0  0  0  0  0  0  0  0  0  0
   -2.3280    2.7304   -2.0908 C   0  0  0  0  0  0  0  0  0  0  0  0
   -1.1253    2.1464   -2.0414 C   0  0  0  0  0  0  0  0  0  0  0  0
   -0.1672    2.4474   -2.9965 O   0  0  0  0  0  0  0  0  0  0  0  0
    1.1762    2.3071   -2.5534 C   0  0  2  0  0  0  0  0  0  0  0  0
    2.0939    2.6868   -3.5991 O   0  0  0  0  0  0  0  0  0  0  0  0
    2.0494    4.0125   -4.0104 C   0  0  0  0  0  0  0  0  0  0  0  0
    2.3583    4.3515   -5.2783 C   0  0  0  0  0  0  0  0  0  0  0  0
    2.3909    5.6727   -5.7252 O   0  0  0  0  0  0  0  0  0  0  0  0
    2.1878    6.7138   -4.8149 C   0  0  0  0  0  0  0  0  0  0  0  0
    1.9153    6.4706   -3.5192 C   0  0  0  0  0  0  0  0  0  0  0  0
    1.7495    5.0775   -2.9857 C   0  0  0  0  0  0  0  0  0  0  0  0
    1.7498    7.5816   -2.5150 C   0  0  3  0  0  0  0  0  0  0  0  0
    2.7829    7.4253   -1.5495 O   0  0  0  0  0  0  0  0  0  0  0  0
    2.8828    8.3855   -0.6082 C   0  0  0  0  0  0  0  0  0  0  0  0
    3.5875    8.1928    0.4380 N   0  0  0  0  0  0  0  0  0  0  0  0
    2.2293    9.5422   -0.8032 O   0  0  0  0  0  0  0  0  0  0  0  0
    1.8161    9.9775   -2.0912 C   0  0  3  0  0  0  0  0  0  0  0  0
    1.9361    8.9188   -3.1300 C   0  0  0  0  0  0  0  0  0  0  0  0
    2.1830    9.0984   -4.4466 C   0  0  0  0  0  0  0  0  0  0  0  0
    2.2903    7.9995   -5.2895 O   0  3  0  0  0  0  0  0  0  0  0  0
    2.3735   10.4127   -5.0905 C   0  0  3  0  0  0  0  0  0  0  0  0
    2.6204   10.4035   -6.4973 N   0  0  0  0  0  0  0  0  0  0  0  0
    3.6015   10.6242   -5.7676 N   0  0  0  0  0  0  0  0  0  0  0  0
    0.4403   10.2926   -2.0548 O   0  0  0  0  0  0  0  0  0  0  0  0
    2.7397    3.3491   -6.2967 C   0  0  0  0  0  0  0  0  0  0  0  0
    4.0862    3.0122   -6.4131 C   0  0  0  0  0  0  0  0  0  0  0  0
    4.4916    2.1151   -7.3181 N   0  3  0  0  0  0  0  0  0  0  0  0
    5.8024    1.8193   -7.4093 F   0  0  0  0  0  0  0  0  0  0  0  0
    3.6571    1.5112   -8.1398 N   0  0  0  0  0  0  0  0  0  0  0  0
    2.3450    1.7400   -8.0368 C   0  0  0  0  0  0  0  0  0  0  0  0
    1.8169    2.6674   -7.1159 C   0  0  0  0  0  0  0  0  0  0  0  0
    0.4114    2.8261   -7.0425 C   0  0  0  0  0  0  0  0  0  0  0  0
   -0.4403    2.0243   -7.8160 C   0  0  0  0  0  0  0  0  0  0  0  0
   -1.8936    2.0950   -7.6373 C   0  0  0  0  0  0  0  0  0  0  0  0
   -2.3944    2.9626   -6.9414 O   0  0  0  0  0  0  0  0  0  0  0  0
   -2.7165    1.0327   -8.3330 C   0  0  0  0  0  0  0  0  0  0  0  0
   -3.9144    1.1917   -8.5030 O   0  0  0  0  0  0  0  0  0  0  0  0
   -1.9258   -0.1854   -8.7571 C   0  0  1  0  0  0  0  0  0  0  0  0
   -0.6738    0.1784   -9.3740 O   0  0  0  0  0  0  0  0  0  0  0  0
    0.0832    1.0943   -8.6977 C   0  0  0  0  0  0  0  0  0  0  0  0
    1.4684    1.0075   -8.8346 C   0  0  0  0  0  0  0  0  0  0  0  0
    1.9790    0.1192   -9.7026 F   0  0  0  0  0  0  0  0  0  0  0  0
   -1.7868   -1.1999   -7.6418 C   0  0  1  0  0  0  0  0  0  0  0  0
   -3.0162   -1.7403   -7.1248 O   0  0  0  0  0  0  0  0  0  0  0  0
   -0.7272   -2.1605   -7.8054 O   0  0  0  0  0  0  0  0  0  0  0  0
   -0.6353   -1.3275   -6.7621 C   0  0  0  0  0  0  0  0  0  0  0  0
    0.2256   -0.5504   -6.4039 O   0  0  0  0  0  0  0  0  0  0  0  0
    1.4298    0.8716   -2.1435 C   0  0  0  0  0  0  0  0  0  0  0  0
    2.3182    0.1535   -2.5741 O   0  0  0  0  0  0  0  0  0  0  0  0
    0.4597    0.4242   -1.0780 C   0  0  0  0  0  0  0  0  0  0  0  0
    0.7798   -0.4499   -0.2931 O   0  0  0  0  0  0  0  0  0  0  0  0
   -0.8708    1.1485   -0.9581 C   0  0  0  0  0  0  0  0  0  0  0  0
   -1.6282    0.9552   -0.0237 O   0  0  0  0  0  0  0  0  0  0  0  0
  1  2  1  0  0  0  0
  2  3  2  0  0  0  0
  3  4  1  0  0  0  0
  3 53  1  0  0  0  0
  4  5  1  0  0  0  0
  5  6  1  6  0  0  0
  5 49  1  0  0  0  0
  6  7  1  0  0  0  0
  7  8  2  0  0  0  0
  7 12  1  0  0  0  0
  8  9  1  0  0  0  0
  8 26  1  0  0  0  0
  9 10  1  0  0  0  0
 10 11  2  0  0  0  0
 10 21  1  0  0  0  0
 11 12  1  0  0  0  0
 11 13  1  0  0  0  0
 13 14  1  0  0  0  0
 13 19  1  0  0  0  0
 14 15  1  0  0  0  0
 15 16  2  0  0  0  0
 15 17  1  0  0  0  0
 17 18  1  0  0  0  0
 18 19  1  0  0  0  0
 18 25  1  0  0  0  0
 19 20  2  0  0  0  0
 20 21  1  0  0  0  0
 20 22  1  0  0  0  0
 22 23  1  0  0  0  0
 22 24  1  0  0  0  0
 23 24  2  0  0  0  0
 26 27  2  0  0  0  0
 26 32  1  0  0  0  0
 27 28  1  0  0  0  0
 28 29  1  0  0  0  0
 28 30  2  0  0  0  0
 30 31  1  0  0  0  0
 31 32  2  0  0  0  0
 31 42  1  0  0  0  0
 32 33  1  0  0  0  0
 33 34  2  0  0  0  0
 34 35  1  0  0  0  0
 34 41  1  0  0  0  0
 35 36  2  0  0  0  0
 35 37  1  0  0  0  0
 37 38  2  0  0  0  0
 39 37  1  1  0  0  0
 39 40  1  0  0  0  0
 39 44  1  0  0  0  0
 40 41  1  0  0  0  0
 41 42  2  0  0  0  0
 42 43  1  0  0  0  0
 44 45  1  1  0  0  0
 44 46  1  0  0  0  0
 44 47  1  0  0  0  0
 46 47  1  0  0  0  0
 47 48  2  0  0  0  0
 49 50  2  0  0  0  0
 49 51  1  0  0  0  0
 51 52  2  0  0  0  0
 51 53  1  0  0  0  0
 53 54  2  0  0  0  0
M  CHG  2  21   1  28   1
M  END
$$$$