
 OpenBabel11212016343D

 53 61  0  0  1  0  0  0  0  0999 V2000
    0.9189    1.5063   -8.9956 O   0  0  0  0  0  0  0  0  0  0  0  0
    0.8082    0.2853   -8.3891 C   0  0  0  0  0  0  0  0  0  0  0  0
    1.3316    0.0373   -7.1832 C   0  0  0  0  0  0  0  0  0  0  0  0
    2.0828    0.9801   -6.5084 O   0  0  0  0  0  0  0  0  0  0  0  0
    1.6106    1.1896   -5.1836 C   0  0  2  0  0  0  0  0  0  0  0  0
    2.2837    2.2914   -4.5339 O   0  0  0  0  0  0  0  0  0  0  0  0
    2.1395    3.5611   -5.0825 C   0  0  0  0  0  0  0  0  0  0  0  0
    2.2622    4.6593   -4.3066 C   0  0  0  0  0  0  0  0  0  0  0  0
    2.2245    5.9608   -4.8011 O   0  0  0  0  0  0  0  0  0  0  0  0
    2.0755    6.1647   -6.1695 C   0  0  0  0  0  0  0  0  0  0  0  0
    1.9229    5.1346   -7.0146 C   0  0  0  0  0  0  0  0  0  0  0  0
    1.9344    3.7126   -6.5755 C   0  0  0  0  0  0  0  0  0  0  0  0
    1.7637    5.4245   -8.4670 C   0  0  0  0  0  0  0  0  0  0  0  0
    1.6250    4.4636   -9.3166 N   0  0  0  0  0  0  0  0  0  0  0  0
    1.4934    4.7547  -10.6579 C   0  0  0  0  0  0  0  0  0  0  0  0
    1.3869    3.8163  -11.4376 O   0  0  0  0  0  0  0  0  0  0  0  0
    1.4718    6.0432  -11.1535 N   0  0  0  0  0  0  0  0  0  0  0  0
    1.6030    7.0253  -10.3293 C   0  0  0  0  0  0  0  0  0  0  0  0
    1.7810    6.8387   -8.8875 C   0  0  0  0  0  0  0  0  0  0  0  0
    1.9585    7.8058   -7.9658 C   0  0  0  0  0  0  0  0  0  0  0  0
    2.1120    7.4589   -6.6264 N   0  0  0  0  0  0  0  0  0  0  0  0
    2.0153    9.2516   -8.2752 C   0  0  0  0  0  0  0  0  0  0  0  0
    0.8995    9.9511   -8.8452 O   0  0  0  0  0  0  0  0  0  0  0  0
    1.3006   10.2175   -7.4874 O   0  0  0  0  0  0  0  0  0  0  0  0
    2.4984    4.5886   -2.8548 C   0  0  0  0  0  0  0  0  0  0  0  0
    3.8162    4.5676   -2.4147 C   0  0  0  0  0  0  0  0  0  0  0  0
    4.0943    4.5335   -1.1087 N   0  3  0  0  0  0  0  0  0  0  0  0
    5.3810    4.5376   -0.7121 F   0  0  0  0  0  0  0  0  0  0  0  0
    3.1558    4.5098   -0.1815 N   0  0  0  0  0  0  0  0  0  0  0  0
    1.8678    4.5135   -0.5415 C   0  0  0  0  0  0  0  0  0  0  0  0
    1.4700    4.5548   -1.8904 C   0  0  0  0  0  0  0  0  0  0  0  0
    0.0843    4.5714   -2.1897 C   0  0  0  0  0  0  0  0  0  0  0  0
   -0.8748    4.5534   -1.1654 C   0  0  0  0  0  0  0  0  0  0  0  0
   -2.3051    4.6209   -1.4820 C   0  0  0  0  0  0  0  0  0  0  0  0
   -2.7008    4.7570   -2.6264 O   0  0  0  0  0  0  0  0  0  0  0  0
   -3.2501    4.5205   -0.3097 C   0  0  0  0  0  0  0  0  0  0  0  0
   -4.3536    4.0147   -0.4407 O   0  0  0  0  0  0  0  0  0  0  0  0
   -2.6746    5.0498    0.9819 C   0  0  1  0  0  0  0  0  0  0  0  0
   -1.3414    4.5603    1.2267 O   0  0  0  0  0  0  0  0  0  0  0  0
   -0.4822    4.5149    0.1624 C   0  0  0  0  0  0  0  0  0  0  0  0
    0.8846    4.4874    0.4486 C   0  0  0  0  0  0  0  0  0  0  0  0
    1.2731    4.4790    1.7349 F   0  0  0  0  0  0  0  0  0  0  0  0
   -2.7807    6.5536    1.0737 C   0  0  1  0  0  0  0  0  0  0  0  0
   -4.1064    7.1037    1.0028 O   0  0  0  0  0  0  0  0  0  0  0  0
   -1.9311    7.1820    2.0500 O   0  0  0  0  0  0  0  0  0  0  0  0
   -1.6895    7.4637    0.7645 C   0  0  0  0  0  0  0  0  0  0  0  0
   -0.6804    7.3444    0.0864 O   0  0  0  0  0  0  0  0  0  0  0  0
    1.8707   -0.0631   -4.3574 C   0  0  0  0  0  0  0  0  0  0  0  0
    2.1886   -0.0659   -3.1744 O   0  0  0  0  0  0  0  0  0  0  0  0
    1.6404   -1.3518   -5.1273 C   0  0  0  0  0  0  0  0  0  0  0  0
    1.8820   -2.4282   -4.6059 O   0  0  0  0  0  0  0  0  0  0  0  0
    1.1057   -1.2840   -6.5474 C   0  0  0  0  0  0  0  0  0  0  0  0
    0.5016   -2.2055   -7.0640 O   0  0  0  0  0  0  0  0  0  0  0  0
  1  2  1  0  0  0  0
  2  3  2  0  0  0  0
  3  4  1  0  0  0  0
  3 52  1  0  0  0  0
  4  5  1  0  0  0  0
  5  6  1  1  0  0  0
  5 48  1  0  0  0  0
  6  7  1  0  0  0  0
  7  8  2  0  0  0  0
  7 12  1  0  0  0  0
  8  9  1  0  0  0  0
  8 25  1  0  0  0  0
  9 10  1  0  0  0  0
 10 11  2  0  0  0  0
 10 21  1  0  0  0  0
 11 12  1  0  0  0  0
 11 13  1  0  0  0  0
 13 14  2  0  0  0  0
 13 19  1  0  0  0  0
 14 15  1  0  0  0  0
 15 16  2  0  0  0  0
 15 17  1  0  0  0  0
 17 18  2  0  0  0  0
 18 19  1  0  0  0  0
 19 20  2  0  0  0  0
 20 21  1  0  0  0  0
 20 22  1  0  0  0  0
 22 23  1  0  0  0  0
 22 24  1  0  0  0  0
 23 24  1  0  0  0  0
 25 26  2  0  0  0  0
 25 31  1  0  0  0  0
 26 27  1  0  0  0  0
 27 28  1  0  0  0  0
 27 29  2  0  0  0  0
 29 30  1  0  0  0  0
 30 31  2  0  0  0  0
 30 41  1  0  0  0  0
 31 32  1  0  0  0  0
 32 33  2  0  0  0  0
 33 34  1  0  0  0  0
 33 40  1  0  0  0  0
 34 35  2  0  0  0  0
 34 36  1  0  0  0  0
 36 37  2  0  0  0  0
 38 36  1  6  0  0  0
 38 39  1  0  0  0  0
 38 43  1  0  0  0  0
 39 40  1  0  0  0  0
 40 41  2  0  0  0  0
 41 42  1  0  0  0  0
 43 44  1  6  0  0  0
 43 45  1  0  0  0  0
 43 46  1  0  0  0  0
 45 46  1  0  0  0  0
 46 47  2  0  0  0  0
 48 49  2  0  0  0  0
 48 50  1  0  0  0  0
 50 51  2  0  0  0  0
 50 52  1  0  0  0  0
 52 53  2  0  0  0  0
M  CHG  1  27   1
M  END
$$$$