
 OpenBabel11262000333D

 54 62  0  0  1  0  0  0  0  0999 V2000
    1.7422    5.4675    3.3867 O   0  0  0  0  0  0  0  0  0  0  0  0
    3.0895    5.2656    3.2174 C   0  0  0  0  0  0  0  0  0  0  0  0
    3.6711    4.0934    3.4917 C   0  0  0  0  0  0  0  0  0  0  0  0
    2.9210    3.0578    4.0088 O   0  0  0  0  0  0  0  0  0  0  0  0
    3.3099    1.7961    3.5287 C   0  0  2  0  0  0  0  0  0  0  0  0
    2.5188    0.7519    4.1804 O   0  0  0  0  0  0  0  0  0  0  0  0
    2.7382    0.5385    5.5435 C   0  0  0  0  0  0  0  0  0  0  0  0
    2.6267   -0.7057    6.0471 C   0  0  0  0  0  0  0  0  0  0  0  0
    2.8382   -1.0068    7.3959 O   0  0  0  0  0  0  0  0  0  0  0  0
    3.1713    0.0291    8.2941 C   0  0  0  0  0  0  0  0  0  0  0  0
    3.2548    1.3114    7.8804 C   0  0  0  0  0  0  0  0  0  0  0  0
    3.0529    1.7099    6.4471 C   0  0  0  0  0  0  0  0  0  0  0  0
    3.5832    2.4490    8.8310 C   0  0  3  0  0  0  0  0  0  0  0  0
    2.4837    3.3408    8.8557 O   0  0  0  0  0  0  0  0  0  0  0  0
    2.5604    4.3450    9.7626 C   0  0  0  0  0  0  0  0  0  0  0  0
    1.8089    5.3680    9.6381 N   0  0  0  0  0  0  0  0  0  0  0  0
    3.4225    4.2400   10.7960 O   0  0  0  0  0  0  0  0  0  0  0  0
    3.9661    3.0619   11.1417 C   0  0  0  0  0  0  0  0  0  0  0  0
    4.6130    2.8795   12.1604 O   0  0  0  0  0  0  0  0  0  0  0  0
    3.7637    1.9596   10.2064 C   0  0  0  0  0  0  0  0  0  0  0  0
    3.7078    0.6621   10.5712 C   0  0  0  0  0  0  0  0  0  0  0  0
    3.4033   -0.3025    9.6139 O   0  3  0  0  0  0  0  0  0  0  0  0
    3.8742    0.1241   11.9419 C   0  0  3  0  0  0  0  0  0  0  0  0
    3.9368   -1.3082   12.0257 N   0  0  0  0  0  0  0  0  0  0  0  0
    2.8737   -0.7794   12.3861 N   0  0  0  0  0  0  0  0  0  0  0  0
    2.1536   -1.8107    5.1714 C   0  0  0  0  0  0  0  0  0  0  0  0
    0.7686   -1.9440    4.9935 C   0  0  0  0  0  0  0  0  0  0  0  0
    0.2896   -2.8332    4.1213 N   0  3  0  0  0  0  0  0  0  0  0  0
   -1.0451   -2.9568    3.9652 F   0  0  0  0  0  0  0  0  0  0  0  0
    1.0837   -3.5895    3.3917 N   0  0  0  0  0  0  0  0  0  0  0  0
    2.4180   -3.4806    3.5366 C   0  0  0  0  0  0  0  0  0  0  0  0
    3.0032   -2.6032    4.4405 N   0  3  0  0  0  0  0  0  0  0  0  0
    4.3643   -2.5777    4.5638 C   0  0  0  0  0  0  0  0  0  0  0  0
    5.1785   -3.4237    3.8096 C   0  0  0  0  0  0  0  0  0  0  0  0
    6.6098   -3.4851    4.0858 C   0  0  0  0  0  0  0  0  0  0  0  0
    7.0547   -2.8255    5.0080 O   0  0  0  0  0  0  0  0  0  0  0  0
    7.4096   -4.4857    3.2766 C   0  0  0  0  0  0  0  0  0  0  0  0
    8.4099   -4.9967    3.7477 O   0  0  0  0  0  0  0  0  0  0  0  0
    6.7843   -4.8252    1.9413 C   0  0  1  0  0  0  0  0  0  0  0  0
    5.3640   -5.0864    2.0608 O   0  0  0  0  0  0  0  0  0  0  0  0
    4.6346   -4.2613    2.8653 C   0  0  0  0  0  0  0  0  0  0  0  0
    3.2516   -4.2856    2.7525 C   0  0  0  0  0  0  0  0  0  0  0  0
    2.6841   -5.1208    1.8707 F   0  0  0  0  0  0  0  0  0  0  0  0
    7.0264   -3.7451    0.9391 C   0  0  1  0  0  0  0  0  0  0  0  0
    6.4288   -2.4466    1.2228 O   0  0  0  0  0  0  0  0  0  0  0  0
    8.3239   -3.7104    0.3722 O   0  0  0  0  0  0  0  0  0  0  0  0
    7.3165   -3.9999   -0.4827 C   0  0  0  0  0  0  0  0  0  0  0  0
    6.8826   -3.3713   -1.4189 O   0  0  0  0  0  0  0  0  0  0  0  0
    4.7992    1.4519    3.6638 C   0  0  0  0  0  0  0  0  0  0  0  0
    5.1505    0.2741    3.8309 O   0  0  0  0  0  0  0  0  0  0  0  0
    5.7480    2.6246    3.7581 C   0  0  3  0  0  0  0  0  0  0  0  0
    5.1465    3.9324    3.2956 C   0  0  0  0  0  0  0  0  0  0  0  0
    5.8334    4.8397    2.8401 O   0  0  0  0  0  0  0  0  0  0  0  0
    6.1859    2.7229    5.0520 F   0  0  0  0  0  0  0  0  0  0  0  0
  1  2  1  0  0  0  0
  2  3  2  0  0  0  0
  3  4  1  0  0  0  0
  3 52  1  0  0  0  0
  4  5  1  0  0  0  0
  5  6  1  1  0  0  0
  5 49  1  0  0  0  0
  6  7  1  0  0  0  0
  7  8  2  0  0  0  0
  7 12  1  0  0  0  0
  8  9  1  0  0  0  0
  8 26  1  0  0  0  0
  9 10  1  0  0  0  0
 10 11  2  0  0  0  0
 10 22  1  0  0  0  0
 11 12  1  0  0  0  0
 11 13  1  0  0  0  0
 13 14  1  0  0  0  0
 13 20  1  0  0  0  0
 14 15  1  0  0  0  0
 15 16  2  0  0  0  0
 15 17  1  0  0  0  0
 17 18  1  0  0  0  0
 18 19  2  0  0  0  0
 18 20  1  0  0  0  0
 20 21  2  0  0  0  0
 21 22  1  0  0  0  0
 21 23  1  0  0  0  0
 23 24  1  0  0  0  0
 23 25  1  0  0  0  0
 24 25  2  0  0  0  0
 26 27  2  0  0  0  0
 26 32  1  0  0  0  0
 27 28  1  0  0  0  0
 28 29  1  0  0  0  0
 28 30  2  0  0  0  0
 30 31  1  0  0  0  0
 31 32  2  0  0  0  0
 31 42  1  0  0  0  0
 32 33  1  0  0  0  0
 33 34  2  0  0  0  0
 34 35  1  0  0  0  0
 34 41  1  0  0  0  0
 35 36  2  0  0  0  0
 35 37  1  0  0  0  0
 37 38  2  0  0  0  0
 39 37  1  1  0  0  0
 39 40  1  0  0  0  0
 39 44  1  0  0  0  0
 40 41  1  0  0  0  0
 41 42  2  0  0  0  0
 42 43  1  0  0  0  0
 44 45  1  1  0  0  0
 44 46  1  0  0  0  0
 44 47  1  0  0  0  0
 46 47  1  0  0  0  0
 47 48  2  0  0  0  0
 49 50  2  0  0  0  0
 49 51  1  0  0  0  0
 51 52  1  0  0  0  0
 51 54  1  0  0  0  0
 52 53  2  0  0  0  0
M  CHG  3  22   1  28   1  32   1
M  END
$$$$