
 OpenBabel11242013473D

 93108  0  0  1  0  0  0  0  0999 V2000
   -0.4645   -6.2231   -1.7442 F   0  0  0  0  0  0  0  0  0  0  0  0
   -0.2971   -5.0470   -1.0805 C   0  0  3  0  0  0  0  0  0  0  0  0
   -1.2477   -4.0014   -1.6870 C   0  0  0  0  0  0  0  0  0  0  0  0
   -0.6179   -2.5895   -1.6954 C   0  0  3  0  0  0  0  0  0  0  0  0
   -1.6539   -1.5238   -2.0806 C   0  0  0  0  0  0  0  0  0  0  0  0
   -1.3601   -0.8213   -3.3991 C   0  0  0  0  0  0  0  0  0  0  0  0
    0.1182   -0.4425   -3.5029 C   0  0  3  0  0  0  0  0  0  0  0  0
    0.9540   -1.7035   -3.5655 C   0  0  0  0  0  0  0  0  0  0  0  0
    0.6364   -2.6692   -2.5651 C   0  0  0  0  0  0  0  0  0  0  0  0
    1.4553   -3.7906   -2.3477 C   0  0  0  0  0  0  0  0  0  0  0  0
    1.1846   -4.6227   -1.1075 C   0  0  3  0  0  0  0  0  0  0  0  0
    2.1890   -5.7699   -0.7827 C   0  0  3  0  0  0  0  0  0  0  0  0
    3.5003   -5.6050   -1.5884 C   0  0  0  0  0  0  0  0  0  0  0  0
    3.2781   -5.3154   -3.0674 C   0  0  0  0  0  0  0  0  0  0  0  0
    2.4877   -4.0552   -3.2300 C   0  0  0  0  0  0  0  0  0  0  0  0
    2.7283   -3.1682   -4.2959 C   0  0  0  0  0  0  0  0  0  0  0  0
    2.0194   -1.9484   -4.4843 C   0  0  0  0  0  0  0  0  0  0  0  0
    2.4528   -1.0459   -5.6195 C   0  0  0  0  0  0  0  0  0  0  0  0
    3.8104   -0.9738   -6.0324 C   0  0  0  0  0  0  0  0  0  0  0  0
    4.2659   -0.1756   -7.1207 C   0  0  0  0  0  0  0  0  0  0  0  0
    5.7231   -0.2748   -7.5742 C   0  0  3  0  0  0  0  0  0  0  0  0
    6.6605    0.3101   -6.5021 C   0  0  0  0  0  0  0  0  0  0  0  0
    8.1219    0.2797   -6.9294 C   0  0  0  0  0  0  0  0  0  0  0  0
    8.3381    0.9938   -8.2585 C   0  0  3  0  0  0  0  0  0  0  0  0
    7.4684    0.3720   -9.3611 C   0  0  3  0  0  0  0  0  0  0  0  0
    5.9641    0.3524   -8.9795 C   0  0  3  0  0  0  0  0  0  0  0  0
    5.2845    1.7295   -9.0469 C   0  0  0  0  0  0  0  0  0  0  0  0
    3.7591    1.6028   -8.8966 C   0  0  3  0  0  0  0  0  0  0  0  0
    3.3572    0.6731   -7.7661 C   0  0  0  0  0  0  0  0  0  0  0  0
    2.0142    0.6186   -7.3762 C   0  0  0  0  0  0  0  0  0  0  0  0
    1.5752   -0.2718   -6.3894 C   0  0  0  0  0  0  0  0  0  0  0  0
    0.2464   -0.3907   -6.2498 F   0  0  0  0  0  0  0  0  0  0  0  0
    3.1143    1.1745  -10.2246 C   0  0  0  0  0  0  0  0  0  0  0  0
    7.7360    1.0395  -10.7175 C   0  0  0  0  0  0  0  0  0  0  0  0
    9.7185    0.9085   -8.6035 O   0  0  0  0  0  0  0  0  0  0  0  0
    2.4624   -5.8254    0.7725 C   0  0  3  0  0  0  0  0  0  0  0  0
    1.1963   -6.0774    1.4603 O   0  0  0  0  0  0  0  0  0  0  0  0
    1.2698   -6.4797    2.7646 C   0  0  0  0  0  0  0  0  0  0  0  0
    2.2509   -7.3786    3.1600 C   0  0  0  0  0  0  0  0  0  0  0  0
    3.1677   -7.8967    2.0892 C   0  0  3  0  0  0  0  0  0  0  0  0
    3.6424   -6.7781    1.1337 C   0  0  3  0  0  0  0  0  0  0  0  0
    4.7274   -5.9565    1.6764 O   0  0  0  0  0  0  0  0  0  0  0  0
    5.8598   -5.8000    0.8945 C   0  0  0  0  0  0  0  0  0  0  0  0
    6.4358   -6.8506    0.1778 C   0  0  0  0  0  0  0  0  0  0  0  0
    7.6271   -6.6751   -0.5378 C   0  0  0  0  0  0  0  0  0  0  0  0
    8.2954   -5.4568   -0.5096 C   0  0  0  0  0  0  0  0  0  0  0  0
    7.7395   -4.3934    0.1956 C   0  0  0  0  0  0  0  0  0  0  0  0
    6.5172   -4.5566    0.8791 C   0  0  0  0  0  0  0  0  0  0  0  0
    4.2248   -8.6409    2.6879 O   0  0  0  0  0  0  0  0  0  0  0  0
    2.2667   -7.8293    4.4927 C   0  0  0  0  0  0  0  0  0  0  0  0
    1.3794   -7.3643    5.4912 C   0  0  0  0  0  0  0  0  0  0  0  0
    0.3382   -6.4892    5.0640 C   0  0  0  0  0  0  0  0  0  0  0  0
    0.3121   -6.0960    3.6989 C   0  0  0  0  0  0  0  0  0  0  0  0
   -0.6891   -5.2662    3.3171 F   0  0  0  0  0  0  0  0  0  0  0  0
   -0.5755   -6.0657    6.0445 C   0  0  0  0  0  0  0  0  0  0  0  0
   -1.6319   -5.2236    5.7646 O   0  0  0  0  0  0  0  0  0  0  0  0
   -0.4897   -6.4371    7.3956 C   0  0  0  0  0  0  0  0  0  0  0  0
    0.5336   -7.2731    7.8780 C   0  0  0  0  0  0  0  0  0  0  0  0
    1.4495   -7.6992    6.8842 C   0  0  0  0  0  0  0  0  0  0  0  0
    2.4971   -8.4778    7.3401 O   0  0  0  0  0  0  0  0  0  0  0  0
    0.5838   -7.6615    9.3501 C   0  0  0  0  0  0  0  0  0  0  0  0
    0.0577   -6.7654   10.3297 C   0  0  0  0  0  0  0  0  0  0  0  0
   -0.1336   -7.0777   11.7364 C   0  0  0  0  0  0  0  0  0  0  0  0
   -0.7672   -6.2954   12.8804 C   0  0  0  0  0  0  0  0  0  0  0  0
   -0.7911   -6.8674   14.1717 C   0  0  0  0  0  0  0  0  0  0  0  0
   -1.5281   -6.3095   15.2616 N   0  0  0  0  0  0  0  0  0  0  0  0
   -0.2434   -8.1386   14.3025 C   0  0  0  0  0  0  0  0  0  0  0  0
    0.3260   -8.8261   13.3073 N   0  0  0  0  0  0  0  0  0  0  0  0
    0.3855   -8.3461   12.0702 N   0  3  0  0  0  0  0  0  0  0  0  0
    0.9699   -9.1697   11.1645 N   0  3  0  0  0  0  0  0  0  0  0  0
    1.0617   -8.8922    9.8438 C   0  0  0  0  0  0  0  0  0  0  0  0
    1.5541   -9.8971    9.0785 O   0  0  0  0  0  0  0  0  0  0  0  0
    1.4837  -10.4340   11.5137 O   0  0  0  0  0  0  0  0  0  0  0  0
   -1.4152   -4.8335   12.7886 N   0  3  0  0  0  0  0  0  0  0  0  0
   -1.3704   -3.9381   13.8855 N   0  3  0  0  0  0  0  0  0  0  0  0
   -0.4655   -4.0792   14.9407 O   0  0  0  0  0  0  0  0  0  0  0  0
   -2.0041   -2.7145   13.9082 C   0  0  0  0  0  0  0  0  0  0  0  0
   -2.6671   -2.1481   12.8005 C   0  0  0  0  0  0  0  0  0  0  0  0
   -2.6205   -2.9280   11.6423 C   0  0  0  0  0  0  0  0  0  0  0  0
   -2.0915   -4.3332   11.6757 C   0  0  0  0  0  0  0  0  0  0  0  0
   -2.5068   -5.1394   10.6159 N   0  0  0  0  0  0  0  0  0  0  0  0
   -3.1214   -2.3675   10.5193 N   0  0  0  0  0  0  0  0  0  0  0  0
   -3.6429   -1.1289   10.4583 N   0  3  0  0  0  0  0  0  0  0  0  0
   -3.8328   -0.3512   11.5726 C   0  0  0  0  0  0  0  0  0  0  0  0
   -3.3531   -0.8967   12.7636 N   0  3  0  0  0  0  0  0  0  0  0  0
   -3.6148   -0.2100   13.9262 N   0  0  0  0  0  0  0  0  0  0  0  0
   -4.3233    0.9600   13.9290 N   0  3  0  0  0  0  0  0  0  0  0  0
   -4.6946    1.6128   15.2355 C   0  0  0  0  0  0  0  0  0  0  0  0
   -4.7103    1.5209   12.7681 C   0  0  0  0  0  0  0  0  0  0  0  0
   -4.4561    0.8737   11.6128 N   0  3  0  0  0  0  0  0  0  0  0  0
   -4.8672    1.4521   10.4009 O   0  0  0  0  0  0  0  0  0  0  0  0
   -4.0450   -0.6287    9.2248 O   0  0  0  0  0  0  0  0  0  0  0  0
    0.5160    0.2900   -2.3338 O   0  0  0  0  0  0  0  0  0  0  0  0
  1  2  1  0  0  0  0
  2  3  1  0  0  0  0
  2 11  1  0  0  0  0
  3  4  1  0  0  0  0
  4  5  1  0  0  0  0
  4  9  1  0  0  0  0
  5  6  1  0  0  0  0
  6  7  1  0  0  0  0
  7  8  1  0  0  0  0
  7 93  1  0  0  0  0
  8  9  2  0  0  0  0
  8 17  1  0  0  0  0
  9 10  1  0  0  0  0
 10 11  1  0  0  0  0
 10 15  2  0  0  0  0
 11 12  1  0  0  0  0
 12 13  1  0  0  0  0
 12 36  1  0  0  0  0
 13 14  1  0  0  0  0
 14 15  1  0  0  0  0
 15 16  1  0  0  0  0
 16 17  2  0  0  0  0
 17 18  1  0  0  0  0
 18 19  2  0  0  0  0
 18 31  1  0  0  0  0
 19 20  1  0  0  0  0
 20 21  1  0  0  0  0
 20 29  2  0  0  0  0
 21 22  1  0  0  0  0
 21 26  1  0  0  0  0
 22 23  1  0  0  0  0
 23 24  1  0  0  0  0
 24 25  1  0  0  0  0
 24 35  1  0  0  0  0
 25 26  1  0  0  0  0
 25 34  1  0  0  0  0
 26 27  1  0  0  0  0
 27 28  1  0  0  0  0
 28 29  1  0  0  0  0
 28 33  1  0  0  0  0
 29 30  1  0  0  0  0
 30 31  2  0  0  0  0
 31 32  1  0  0  0  0
 36 37  1  0  0  0  0
 36 41  1  0  0  0  0
 37 38  1  0  0  0  0
 38 39  2  0  0  0  0
 38 53  1  0  0  0  0
 39 40  1  0  0  0  0
 39 50  1  0  0  0  0
 40 41  1  0  0  0  0
 40 49  1  0  0  0  0
 41 42  1  0  0  0  0
 42 43  1  0  0  0  0
 43 44  2  0  0  0  0
 43 48  1  0  0  0  0
 44 45  1  0  0  0  0
 45 46  2  0  0  0  0
 46 47  1  0  0  0  0
 47 48  2  0  0  0  0
 50 51  2  0  0  0  0
 51 52  1  0  0  0  0
 51 59  1  0  0  0  0
 52 53  2  0  0  0  0
 52 55  1  0  0  0  0
 53 54  1  0  0  0  0
 55 56  1  0  0  0  0
 55 57  2  0  0  0  0
 57 58  1  0  0  0  0
 58 59  2  0  0  0  0
 58 61  1  0  0  0  0
 59 60  1  0  0  0  0
 61 62  2  0  0  0  0
 61 71  1  0  0  0  0
 62 63  1  0  0  0  0
 63 64  2  0  0  0  0
 63 69  1  0  0  0  0
 64 65  1  0  0  0  0
 64 74  1  0  0  0  0
 65 66  1  0  0  0  0
 65 67  2  0  0  0  0
 67 68  1  0  0  0  0
 68 69  2  0  0  0  0
 69 70  1  0  0  0  0
 70 71  2  0  0  0  0
 70 73  1  0  0  0  0
 71 72  1  0  0  0  0
 74 75  2  0  0  0  0
 74 80  1  0  0  0  0
 75 76  1  0  0  0  0
 75 77  1  0  0  0  0
 77 78  2  0  0  0  0
 78 79  1  0  0  0  0
 78 85  1  0  0  0  0
 79 80  2  0  0  0  0
 79 82  1  0  0  0  0
 80 81  1  0  0  0  0
 82 83  2  0  0  0  0
 83 84  1  0  0  0  0
 83 92  1  0  0  0  0
 84 85  2  0  0  0  0
 84 90  1  0  0  0  0
 85 86  1  0  0  0  0
 86 87  2  0  0  0  0
 87 88  1  0  0  0  0
 87 89  1  0  0  0  0
 89 90  2  0  0  0  0
 90 91  1  0  0  0  0
M  CHG  8  69   1  70   1  74   1  75   1  83   1  85   1  87   1  90   1
M  END
$$$$