
 OpenBabel10202002423D

 51 59  0  0  1  0  0  0  0  0999 V2000
   -1.7322   -1.0867    4.9765 O   0  0  0  0  0  0  0  0  0  0  0  0
   -0.8350   -1.7812    4.2080 C   0  0  0  0  0  0  0  0  0  0  0  0
    0.2462   -1.2126    3.6599 C   0  0  0  0  0  0  0  0  0  0  0  0
    0.5227    0.1376    3.8548 O   0  0  0  0  0  0  0  0  0  0  0  0
    1.9088    0.4634    3.7168 C   0  0  2  0  0  0  0  0  0  0  0  0
    2.1773    1.8191    4.1019 O   0  0  0  0  0  0  0  0  0  0  0  0
    2.4991    2.0796    5.4353 C   0  0  0  0  0  0  0  0  0  0  0  0
    2.7543    3.3315    5.8962 C   0  0  0  0  0  0  0  0  0  0  0  0
    3.2407    3.5567    7.2006 O   0  0  0  0  0  0  0  0  0  0  0  0
    3.5381    2.4943    8.0359 C   0  0  0  0  0  0  0  0  0  0  0  0
    3.2394    1.2418    7.6828 C   0  0  0  0  0  0  0  0  0  0  0  0
    2.6518    0.9018    6.3723 C   0  0  0  0  0  0  0  0  0  0  0  0
    3.6054    0.1309    8.5951 C   0  0  0  0  0  0  0  0  0  0  0  0
    3.2984   -1.0879    8.2945 N   0  0  0  0  0  0  0  0  0  0  0  0
    3.6634   -2.1022    9.1561 C   0  0  0  0  0  0  0  0  0  0  0  0
    3.3238   -3.2434    8.8721 O   0  0  0  0  0  0  0  0  0  0  0  0
    4.3925   -1.8927   10.3103 N   0  0  0  0  0  0  0  0  0  0  0  0
    4.7192   -0.6864   10.6256 C   0  0  0  0  0  0  0  0  0  0  0  0
    4.3471    0.4781    9.8218 C   0  0  0  0  0  0  0  0  0  0  0  0
    4.6252    1.7702   10.0915 C   0  0  0  0  0  0  0  0  0  0  0  0
    4.1737    2.7622    9.2245 N   0  0  0  0  0  0  0  0  0  0  0  0
    5.4037    2.2271   11.2658 C   0  0  0  0  0  0  0  0  0  0  0  0
    6.8383    2.2881   11.2317 O   0  0  0  0  0  0  0  0  0  0  0  0
    6.0660    3.5027   11.2952 O   0  0  0  0  0  0  0  0  0  0  0  0
    2.7061    4.6025    5.0795 C   0  0  0  0  0  0  0  0  0  0  0  0
    3.6704    5.4405    5.2599 N   0  0  0  0  0  0  0  0  0  0  0  0
    3.7131    6.7107    4.5564 C   0  0  0  0  0  0  0  0  0  0  0  0
    2.7905    6.9138    3.4531 N   0  0  0  0  0  0  0  0  0  0  0  0
    1.8184    6.0953    3.2911 C   0  0  0  0  0  0  0  0  0  0  0  0
    1.5980    4.8953    4.1340 C   0  0  0  0  0  0  0  0  0  0  0  0
    0.4480    4.2148    4.0025 C   0  0  0  0  0  0  0  0  0  0  0  0
   -0.5581    4.4584    2.9138 C   0  0  3  0  0  0  0  0  0  0  0  0
   -0.2548    5.6435    2.0471 C   0  0  0  0  0  0  0  0  0  0  0  0
    0.8390    6.3915    2.2197 C   0  0  0  0  0  0  0  0  0  0  0  0
   -1.1464    6.0099    1.0560 O   0  0  0  0  0  0  0  0  0  0  0  0
   -2.4165    5.3541    1.0046 C   0  0  2  0  0  0  0  0  0  0  0  0
   -2.9888    4.9499    2.3457 C   0  0  0  0  0  0  0  0  0  0  0  0
   -4.1807    4.7495    2.5365 O   0  0  0  0  0  0  0  0  0  0  0  0
   -1.9674    4.6523    3.4283 C   0  0  0  0  0  0  0  0  0  0  0  0
   -2.3246    4.5033    4.5884 O   0  0  0  0  0  0  0  0  0  0  0  0
   -2.3861    4.2428   -0.0065 C   0  0  1  0  0  0  0  0  0  0  0  0
   -2.0686    4.6513   -1.3553 O   0  0  0  0  0  0  0  0  0  0  0  0
   -1.7361    3.0449    0.4365 O   0  0  0  0  0  0  0  0  0  0  0  0
   -3.0428    2.9545    0.1554 C   0  0  0  0  0  0  0  0  0  0  0  0
   -3.6088    2.1859   -0.5987 O   0  0  0  0  0  0  0  0  0  0  0  0
    2.3119    0.1695    2.2869 C   0  0  0  0  0  0  0  0  0  0  0  0
    2.7320    0.9588    1.4586 O   0  0  0  0  0  0  0  0  0  0  0  0
    2.1443   -1.3017    1.9923 C   0  0  0  0  0  0  0  0  0  0  0  0
    2.8598   -1.8566    1.1761 O   0  0  0  0  0  0  0  0  0  0  0  0
    1.1189   -2.0770    2.8048 C   0  0  0  0  0  0  0  0  0  0  0  0
    1.0536   -3.2939    2.7679 O   0  0  0  0  0  0  0  0  0  0  0  0
  1  2  1  0  0  0  0
  2  3  2  0  0  0  0
  3  4  1  0  0  0  0
  3 50  1  0  0  0  0
  4  5  1  0  0  0  0
  5  6  1  6  0  0  0
  5 46  1  0  0  0  0
  6  7  1  0  0  0  0
  7  8  2  0  0  0  0
  7 12  1  0  0  0  0
  8  9  1  0  0  0  0
  8 25  1  0  0  0  0
  9 10  1  0  0  0  0
 10 11  2  0  0  0  0
 10 21  1  0  0  0  0
 11 12  1  0  0  0  0
 11 13  1  0  0  0  0
 13 14  2  0  0  0  0
 13 19  1  0  0  0  0
 14 15  1  0  0  0  0
 15 16  2  0  0  0  0
 15 17  1  0  0  0  0
 17 18  2  0  0  0  0
 18 19  1  0  0  0  0
 19 20  2  0  0  0  0
 20 21  1  0  0  0  0
 20 22  1  0  0  0  0
 22 23  1  0  0  0  0
 22 24  1  0  0  0  0
 23 24  1  0  0  0  0
 25 26  2  0  0  0  0
 25 30  1  0  0  0  0
 26 27  1  0  0  0  0
 27 28  1  0  0  0  0
 28 29  2  0  0  0  0
 29 30  1  0  0  0  0
 29 34  1  0  0  0  0
 30 31  2  0  0  0  0
 31 32  1  0  0  0  0
 32 33  1  0  0  0  0
 32 39  1  0  0  0  0
 33 34  2  0  0  0  0
 33 35  1  0  0  0  0
 36 35  1  1  0  0  0
 36 37  1  0  0  0  0
 36 41  1  0  0  0  0
 37 38  2  0  0  0  0
 37 39  1  0  0  0  0
 39 40  2  0  0  0  0
 41 42  1  6  0  0  0
 41 43  1  0  0  0  0
 41 44  1  0  0  0  0
 43 44  1  0  0  0  0
 44 45  2  0  0  0  0
 46 47  2  0  0  0  0
 46 48  1  0  0  0  0
 48 49  2  0  0  0  0
 48 50  1  0  0  0  0
 50 51  2  0  0  0  0
M  END
$$$$