
 OpenBabel09222006133D

 50 58  0  0  1  0  0  0  0  0999 V2000
    2.7505   -0.9225    0.6280 O   0  0  0  0  0  0  0  0  0  0  0  0
    3.5958   -1.1063   -0.2422 C   0  0  0  0  0  0  0  0  0  0  0  0
    3.9858   -2.3510   -0.5991 N   0  0  0  0  0  0  0  0  0  0  0  0
    4.9585   -2.6598   -1.6223 C   0  0  0  0  0  0  0  0  0  0  0  0
    5.5408   -1.4529   -2.2722 C   0  0  0  0  0  0  0  0  0  0  0  0
    5.1291   -0.1792   -1.9065 C   0  0  0  0  0  0  0  0  0  0  0  0
    4.1746   -0.0606   -0.8882 N   0  0  0  0  0  0  0  0  0  0  0  0
    5.6397    0.9501   -2.5627 C   0  0  0  0  0  0  0  0  0  0  0  0
    5.1956    2.3387   -2.2284 C   0  0  0  0  0  0  0  0  0  0  0  0
    5.6472    3.3818   -3.2150 C   0  0  0  0  0  0  0  0  0  0  0  0
    6.5502    3.0588   -4.1647 C   0  0  0  0  0  0  0  0  0  0  0  0
    7.0779    1.7812   -4.3250 O   0  0  0  0  0  0  0  0  0  0  0  0
    6.5691    0.7413   -3.5740 C   0  0  0  0  0  0  0  0  0  0  0  0
    7.0139   -0.4847   -3.9332 N   0  0  0  0  0  0  0  0  0  0  0  0
    6.4855   -1.5287   -3.2739 C   0  0  0  0  0  0  0  0  0  0  0  0
    6.9589   -2.7297   -3.6931 O   0  0  0  0  0  0  0  0  0  0  0  0
    7.1335    4.0497   -5.0991 C   0  0  0  0  0  0  0  0  0  0  0  0
    8.2685    4.6350   -4.6315 N   0  0  0  0  0  0  0  0  0  0  0  0
    8.8964    5.5127   -5.4379 C   0  0  0  0  0  0  0  0  0  0  0  0
    8.4688    5.8320   -6.7132 C   0  0  0  0  0  0  0  0  0  0  0  0
    7.3126    5.2255   -7.2076 C   0  0  0  0  0  0  0  0  0  0  0  0
    6.6014    4.3143   -6.3887 C   0  0  0  0  0  0  0  0  0  0  0  0
    5.4284    3.7350   -6.9257 C   0  0  0  0  0  0  0  0  0  0  0  0
    5.0097    4.0231   -8.2357 C   0  0  0  0  0  0  0  0  0  0  0  0
    5.7277    4.8987   -9.0358 C   0  0  0  0  0  0  0  0  0  0  0  0
    6.8652    5.5118   -8.5128 C   0  0  0  0  0  0  0  0  0  0  0  0
    5.3861    5.2512  -10.3095 O   0  0  0  0  0  0  0  0  0  0  0  0
    4.5403    4.3476  -11.0207 C   0  0  2  0  0  0  0  0  0  0  0  0
    3.5053    3.5705  -10.2349 C   0  0  0  0  0  0  0  0  0  0  0  0
    2.5175    3.0501  -10.7395 O   0  0  0  0  0  0  0  0  0  0  0  0
    3.7870    3.4118   -8.7603 C   0  0  0  0  0  0  0  0  0  0  0  0
    3.0165    2.8002   -8.0350 O   0  0  0  0  0  0  0  0  0  0  0  0
    5.3774    3.4270  -11.8549 C   0  0  1  0  0  0  0  0  0  0  0  0
    6.3210    2.5893  -11.1435 O   0  0  0  0  0  0  0  0  0  0  0  0
    4.6951    2.8070  -12.9496 O   0  0  0  0  0  0  0  0  0  0  0  0
    5.6811    3.6692  -13.2677 C   0  0  0  0  0  0  0  0  0  0  0  0
    6.6953    3.4900  -13.8931 O   0  0  0  0  0  0  0  0  0  0  0  0
    5.1730    4.6825   -3.0902 O   0  0  0  0  0  0  0  0  0  0  0  0
    3.8835    4.8613   -2.4961 C   0  0  1  0  0  0  0  0  0  0  0  0
    3.9981    4.9790   -1.0805 O   0  0  0  0  0  0  0  0  0  0  0  0
    2.7563    5.1072   -0.3617 C   0  0  1  0  0  0  0  0  0  0  0  0
    2.9994    6.0169    0.8119 C   0  0  0  0  0  0  0  0  0  0  0  0
    1.8593    6.2689    1.6365 O   0  0  0  0  0  0  0  0  0  0  0  0
    2.3944    7.3069    0.7785 O   0  0  0  0  0  0  0  0  0  0  0  0
    1.5477    5.5160   -1.2279 C   0  0  3  0  0  0  0  0  0  0  0  0
    1.9710    6.4947   -2.3002 C   0  0  0  0  0  0  0  0  0  0  0  0
    1.2967    7.4583   -2.6371 O   0  0  0  0  0  0  0  0  0  0  0  0
    3.2273    6.1132   -3.0564 C   0  0  0  0  0  0  0  0  0  0  0  0
    3.5770    6.7374   -4.0476 O   0  0  0  0  0  0  0  0  0  0  0  0
    1.0147    4.3512   -1.8726 O   0  0  0  0  0  0  0  0  0  0  0  0
  1  2  2  0  0  0  0
  2  3  1  0  0  0  0
  2  7  1  0  0  0  0
  3  4  1  0  0  0  0
  4  5  1  0  0  0  0
  5  6  2  0  0  0  0
  5 15  1  0  0  0  0
  6  7  1  0  0  0  0
  6  8  1  0  0  0  0
  8  9  1  0  0  0  0
  8 13  2  0  0  0  0
  9 10  1  0  0  0  0
 10 11  2  0  0  0  0
 10 38  1  0  0  0  0
 11 12  1  0  0  0  0
 11 17  1  0  0  0  0
 12 13  1  0  0  0  0
 13 14  1  0  0  0  0
 14 15  2  0  0  0  0
 15 16  1  0  0  0  0
 17 18  2  0  0  0  0
 17 22  1  0  0  0  0
 18 19  1  0  0  0  0
 19 20  2  0  0  0  0
 20 21  1  0  0  0  0
 21 22  2  0  0  0  0
 21 26  1  0  0  0  0
 22 23  1  0  0  0  0
 23 24  2  0  0  0  0
 24 25  1  0  0  0  0
 24 31  1  0  0  0  0
 25 26  2  0  0  0  0
 25 27  1  0  0  0  0
 28 27  1  1  0  0  0
 28 29  1  0  0  0  0
 28 33  1  0  0  0  0
 29 30  2  0  0  0  0
 29 31  1  0  0  0  0
 31 32  2  0  0  0  0
 33 34  1  1  0  0  0
 33 35  1  0  0  0  0
 33 36  1  0  0  0  0
 35 36  1  0  0  0  0
 36 37  2  0  0  0  0
 39 38  1  6  0  0  0
 39 40  1  0  0  0  0
 39 48  1  0  0  0  0
 40 41  1  0  0  0  0
 41 45  1  0  0  0  0
 41 42  1  1  0  0  0
 42 43  1  0  0  0  0
 42 44  1  0  0  0  0
 43 44  1  0  0  0  0
 45 46  1  0  0  0  0
 45 50  1  0  0  0  0
 46 47  2  0  0  0  0
 46 48  1  0  0  0  0
 48 49  2  0  0  0  0
M  END
$$$$