
 OpenBabel11272001263D

 54 62  0  0  1  0  0  0  0  0999 V2000
    1.9582    3.7264   -6.3910 F   0  0  0  0  0  0  0  0  0  0  0  0
    1.1157    2.8201   -5.8586 C   0  0  0  0  0  0  0  0  0  0  0  0
    1.0328    2.6310   -4.5402 C   0  0  0  0  0  0  0  0  0  0  0  0
    1.8347    3.3554   -3.6845 O   0  0  0  0  0  0  0  0  0  0  0  0
    1.5196    3.2640   -2.2999 C   0  0  2  0  0  0  0  0  0  0  0  0
    2.5374    3.8840   -1.4916 O   0  0  0  0  0  0  0  0  0  0  0  0
    2.8495    5.2002   -1.8065 C   0  0  0  0  0  0  0  0  0  0  0  0
    4.0940    5.7187   -1.6573 C   0  0  0  0  0  0  0  0  0  0  0  0
    4.3113    7.1016   -1.8123 O   0  0  0  0  0  0  0  0  0  0  0  0
    3.2395    7.9733   -1.8700 C   0  0  0  0  0  0  0  0  0  0  0  0
    1.9851    7.5414   -2.0573 C   0  0  0  0  0  0  0  0  0  0  0  0
    1.6929    6.0914   -2.2053 C   0  0  0  0  0  0  0  0  0  0  0  0
    0.8435    8.5180   -2.1380 C   0  0  3  0  0  0  0  0  0  0  0  0
   -0.1376    8.1558   -1.1334 N   0  0  0  0  0  0  0  0  0  0  0  0
   -1.1899    8.9637   -0.8932 C   0  0  0  0  0  0  0  0  0  0  0  0
   -2.1907    8.5964   -0.1770 N   0  0  0  0  0  0  0  0  0  0  0  0
   -1.1371   10.1980   -1.4220 N   0  0  0  0  0  0  0  0  0  0  0  0
    0.0482   10.8585   -1.8663 C   0  0  3  0  0  0  0  0  0  0  0  0
    1.2234    9.9441   -1.8873 C   0  0  0  0  0  0  0  0  0  0  0  0
    2.5148   10.2967   -1.6833 C   0  0  0  0  0  0  0  0  0  0  0  0
    3.4955    9.3138   -1.7278 N   0  0  0  0  0  0  0  0  0  0  0  0
    2.9725   11.6812   -1.4241 C   0  0  0  0  0  0  0  0  0  0  0  0
    2.9820   12.2327   -0.0976 O   0  0  0  0  0  0  0  0  0  0  0  0
    4.2250   11.9654   -0.7763 O   0  0  0  0  0  0  0  0  0  0  0  0
   -0.2169   11.2612   -3.1901 O   0  0  0  0  0  0  0  0  0  0  0  0
    5.3525    5.0237   -1.2277 C   0  0  0  0  0  0  0  0  0  0  0  0
    6.1412    5.8391   -0.4718 N   0  0  0  0  0  0  0  0  0  0  0  0
    7.3112    5.3691   -0.0128 C   0  0  0  0  0  0  0  0  0  0  0  0
    8.0741    6.2011    0.7094 F   0  0  0  0  0  0  0  0  0  0  0  0
    7.7654    4.0925   -0.2375 C   0  0  0  0  0  0  0  0  0  0  0  0
    6.9785    3.2311   -0.9993 C   0  0  0  0  0  0  0  0  0  0  0  0
    5.7565    3.6934   -1.5505 C   0  0  0  0  0  0  0  0  0  0  0  0
    5.0616    2.7755   -2.3740 C   0  0  0  0  0  0  0  0  0  0  0  0
    5.4407    1.4306   -2.4825 C   0  0  0  0  0  0  0  0  0  0  0  0
    4.5631    0.4644   -3.1539 C   0  0  0  0  0  0  0  0  0  0  0  0
    3.5674    0.8166   -3.7705 O   0  0  0  0  0  0  0  0  0  0  0  0
    4.8840   -1.0038   -2.9678 C   0  0  0  0  0  0  0  0  0  0  0  0
    4.1198   -1.8688   -3.3764 O   0  0  0  0  0  0  0  0  0  0  0  0
    6.1161   -1.3054   -2.1442 C   0  0  1  0  0  0  0  0  0  0  0  0
    7.1025   -0.2721   -2.0823 O   0  0  0  0  0  0  0  0  0  0  0  0
    6.6221    0.9926   -1.9206 C   0  0  0  0  0  0  0  0  0  0  0  0
    7.4026    1.9078   -1.2203 C   0  0  0  0  0  0  0  0  0  0  0  0
    8.5760    1.4991   -0.7085 F   0  0  0  0  0  0  0  0  0  0  0  0
    5.8036   -1.7988   -0.7611 C   0  0  1  0  0  0  0  0  0  0  0  0
    6.9538   -2.0667    0.0810 O   0  0  0  0  0  0  0  0  0  0  0  0
    4.7027   -1.1653   -0.1221 O   0  0  0  0  0  0  0  0  0  0  0  0
    4.5721   -2.4856   -0.3702 C   0  0  0  0  0  0  0  0  0  0  0  0
    4.4205   -3.4022    0.4203 O   0  0  0  0  0  0  0  0  0  0  0  0
    1.3575    1.8005   -1.8867 C   0  0  0  0  0  0  0  0  0  0  0  0
    1.9799    1.2823   -0.9590 O   0  0  0  0  0  0  0  0  0  0  0  0
    0.2566    1.0935   -2.6341 C   0  0  3  0  0  0  0  0  0  0  0  0
    0.0883    1.5794   -4.0545 C   0  0  0  0  0  0  0  0  0  0  0  0
   -0.8161    1.1674   -4.7815 O   0  0  0  0  0  0  0  0  0  0  0  0
    0.3899   -0.2645   -2.5789 F   0  0  0  0  0  0  0  0  0  0  0  0
  1  2  1  0  0  0  0
  2  3  2  0  0  0  0
  3  4  1  0  0  0  0
  3 52  1  0  0  0  0
  4  5  1  0  0  0  0
  5  6  1  1  0  0  0
  5 49  1  0  0  0  0
  6  7  1  0  0  0  0
  7  8  2  0  0  0  0
  7 12  1  0  0  0  0
  8  9  1  0  0  0  0
  8 26  1  0  0  0  0
  9 10  1  0  0  0  0
 10 11  2  0  0  0  0
 10 21  1  0  0  0  0
 11 12  1  0  0  0  0
 11 13  1  0  0  0  0
 13 14  1  0  0  0  0
 13 19  1  0  0  0  0
 14 15  1  0  0  0  0
 15 16  2  0  0  0  0
 15 17  1  0  0  0  0
 17 18  1  0  0  0  0
 18 19  1  0  0  0  0
 18 25  1  0  0  0  0
 19 20  2  0  0  0  0
 20 21  1  0  0  0  0
 20 22  1  0  0  0  0
 22 23  1  0  0  0  0
 22 24  1  0  0  0  0
 23 24  1  0  0  0  0
 26 27  2  0  0  0  0
 26 32  1  0  0  0  0
 27 28  1  0  0  0  0
 28 29  1  0  0  0  0
 28 30  2  0  0  0  0
 30 31  1  0  0  0  0
 31 32  2  0  0  0  0
 31 42  1  0  0  0  0
 32 33  1  0  0  0  0
 33 34  2  0  0  0  0
 34 35  1  0  0  0  0
 34 41  1  0  0  0  0
 35 36  2  0  0  0  0
 35 37  1  0  0  0  0
 37 38  2  0  0  0  0
 39 37  1  1  0  0  0
 39 40  1  0  0  0  0
 39 44  1  0  0  0  0
 40 41  1  0  0  0  0
 41 42  2  0  0  0  0
 42 43  1  0  0  0  0
 44 45  1  1  0  0  0
 44 46  1  0  0  0  0
 44 47  1  0  0  0  0
 46 47  1  0  0  0  0
 47 48  2  0  0  0  0
 49 50  2  0  0  0  0
 49 51  1  0  0  0  0
 51 52  1  0  0  0  0
 51 54  1  0  0  0  0
 52 53  2  0  0  0  0
M  END
$$$$