
 OpenBabel11222002063D

 54 62  0  0  1  0  0  0  0  0999 V2000
    5.7727   -7.8947   -3.0033 O   0  0  0  0  0  0  0  0  0  0  0  0
    5.8645   -7.4544   -1.7095 C   0  0  0  0  0  0  0  0  0  0  0  0
    5.4617   -6.2374   -1.3245 C   0  0  0  0  0  0  0  0  0  0  0  0
    4.9718   -5.3153   -2.2215 O   0  0  0  0  0  0  0  0  0  0  0  0
    3.7289   -4.7518   -1.8205 C   0  0  2  0  0  0  0  0  0  0  0  0
    3.1956   -3.9047   -2.8481 O   0  0  0  0  0  0  0  0  0  0  0  0
    2.8365   -4.4528   -4.0759 C   0  0  0  0  0  0  0  0  0  0  0  0
    2.2697   -3.6993   -5.0525 C   0  0  0  0  0  0  0  0  0  0  0  0
    1.9610   -4.2261   -6.3154 O   0  0  0  0  0  0  0  0  0  0  0  0
    2.1929   -5.5662   -6.5877 C   0  0  0  0  0  0  0  0  0  0  0  0
    2.6939   -6.3795   -5.6551 C   0  0  0  0  0  0  0  0  0  0  0  0
    3.1062   -5.9129   -4.3143 C   0  0  0  0  0  0  0  0  0  0  0  0
    2.8764   -7.8118   -5.9783 C   0  0  0  0  0  0  0  0  0  0  0  0
    3.3011   -8.6151   -5.0573 N   0  0  0  0  0  0  0  0  0  0  0  0
    3.4946   -9.9420   -5.3479 C   0  0  0  0  0  0  0  0  0  0  0  0
    3.9279  -10.6650   -4.4584 O   0  0  0  0  0  0  0  0  0  0  0  0
    3.2325  -10.4899   -6.5828 N   0  0  0  0  0  0  0  0  0  0  0  0
    2.8071   -9.6983   -7.4937 C   0  0  0  0  0  0  0  0  0  0  0  0
    2.5576   -8.2670   -7.3534 C   0  0  0  0  0  0  0  0  0  0  0  0
    2.0929   -7.3590   -8.2449 C   0  0  0  0  0  0  0  0  0  0  0  0
    1.8860   -6.0394   -7.8373 N   0  0  0  0  0  0  0  0  0  0  0  0
    1.7622   -7.6308   -9.6696 C   0  0  0  0  0  0  0  0  0  0  0  0
    1.2840   -6.5888  -10.5452 O   0  0  0  0  0  0  0  0  0  0  0  0
    2.5951   -7.1519  -10.7382 O   0  0  0  0  0  0  0  0  0  0  0  0
    2.5435  -10.2381   -8.6855 O   0  0  0  0  0  0  0  0  0  0  0  0
    1.9049   -2.2583   -4.8886 C   0  0  0  0  0  0  0  0  0  0  0  0
    1.4763   -1.8105   -3.6292 C   0  0  0  0  0  0  0  0  0  0  0  0
    1.1501   -0.4894   -3.4564 C   0  0  0  0  0  0  0  0  0  0  0  0
    0.7528   -0.0812   -2.2445 F   0  0  0  0  0  0  0  0  0  0  0  0
    1.1843    0.4139   -4.4433 N   0  0  0  0  0  0  0  0  0  0  0  0
    1.5699   -0.0098   -5.6654 C   0  0  0  0  0  0  0  0  0  0  0  0
    1.9341   -1.3449   -5.9634 C   0  0  0  0  0  0  0  0  0  0  0  0
    2.2868   -1.7090   -7.2206 N   0  0  0  0  0  0  0  0  0  0  0  0
    2.3073   -0.7756   -8.2021 C   0  0  0  0  0  0  0  0  0  0  0  0
    2.6210   -1.2460   -9.5583 C   0  0  0  0  0  0  0  0  0  0  0  0
    2.6114   -2.4286   -9.8694 O   0  0  0  0  0  0  0  0  0  0  0  0
    2.9194   -0.1865  -10.5912 C   0  0  0  0  0  0  0  0  0  0  0  0
    3.2982   -0.5001  -11.7131 O   0  0  0  0  0  0  0  0  0  0  0  0
    2.7527    1.2500  -10.1371 C   0  0  1  0  0  0  0  0  0  0  0  0
    1.9739    1.5077   -8.9733 O   0  0  0  0  0  0  0  0  0  0  0  0
    1.9913    0.5476   -8.0033 C   0  0  0  0  0  0  0  0  0  0  0  0
    1.5817    0.9218   -6.7177 C   0  0  0  0  0  0  0  0  0  0  0  0
    1.3769    2.3021   -6.4307 N   0  0  0  0  0  0  0  0  0  0  0  0
    4.0838    1.9241  -10.0074 C   0  0  1  0  0  0  0  0  0  0  0  0
    5.0027    1.3409   -9.0537 O   0  0  0  0  0  0  0  0  0  0  0  0
    4.6491    2.3765  -11.2369 O   0  0  0  0  0  0  0  0  0  0  0  0
    4.3184    3.3246  -10.3381 C   0  0  0  0  0  0  0  0  0  0  0  0
    5.0128    4.1570   -9.8060 O   0  0  0  0  0  0  0  0  0  0  0  0
    3.9302   -3.9289   -0.5554 C   0  0  0  0  0  0  0  0  0  0  0  0
    3.4236   -2.8399   -0.3221 O   0  0  0  0  0  0  0  0  0  0  0  0
    4.7847   -4.6282    0.4810 C   0  0  0  0  0  0  0  0  0  0  0  0
    4.7919   -4.2277    1.6357 O   0  0  0  0  0  0  0  0  0  0  0  0
    5.5786   -5.8652    0.1061 C   0  0  0  0  0  0  0  0  0  0  0  0
    6.2181   -6.5013    0.9264 O   0  0  0  0  0  0  0  0  0  0  0  0
  1  2  1  0  0  0  0
  2  3  2  0  0  0  0
  3  4  1  0  0  0  0
  3 53  1  0  0  0  0
  4  5  1  0  0  0  0
  5  6  1  6  0  0  0
  5 49  1  0  0  0  0
  6  7  1  0  0  0  0
  7  8  2  0  0  0  0
  7 12  1  0  0  0  0
  8  9  1  0  0  0  0
  8 26  1  0  0  0  0
  9 10  1  0  0  0  0
 10 11  2  0  0  0  0
 10 21  1  0  0  0  0
 11 12  1  0  0  0  0
 11 13  1  0  0  0  0
 13 14  2  0  0  0  0
 13 19  1  0  0  0  0
 14 15  1  0  0  0  0
 15 16  2  0  0  0  0
 15 17  1  0  0  0  0
 17 18  2  0  0  0  0
 18 19  1  0  0  0  0
 18 25  1  0  0  0  0
 19 20  2  0  0  0  0
 20 21  1  0  0  0  0
 20 22  1  0  0  0  0
 22 23  1  0  0  0  0
 22 24  1  0  0  0  0
 23 24  1  0  0  0  0
 26 27  2  0  0  0  0
 26 32  1  0  0  0  0
 27 28  1  0  0  0  0
 28 29  1  0  0  0  0
 28 30  2  0  0  0  0
 30 31  1  0  0  0  0
 31 32  2  0  0  0  0
 31 42  1  0  0  0  0
 32 33  1  0  0  0  0
 33 34  2  0  0  0  0
 34 35  1  0  0  0  0
 34 41  1  0  0  0  0
 35 36  2  0  0  0  0
 35 37  1  0  0  0  0
 37 38  2  0  0  0  0
 39 37  1  1  0  0  0
 39 40  1  0  0  0  0
 39 44  1  0  0  0  0
 40 41  1  0  0  0  0
 41 42  2  0  0  0  0
 42 43  1  0  0  0  0
 44 45  1  1  0  0  0
 44 46  1  0  0  0  0
 44 47  1  0  0  0  0
 46 47  1  0  0  0  0
 47 48  2  0  0  0  0
 49 50  2  0  0  0  0
 49 51  1  0  0  0  0
 51 52  2  0  0  0  0
 51 53  1  0  0  0  0
 53 54  2  0  0  0  0
M  END
$$$$