
 OpenBabel11222022423D

 54 63  0  0  1  0  0  0  0  0999 V2000
   11.5878  -10.9551   -3.7136 O   0  0  0  0  0  0  0  0  0  0  0  0
   11.7522  -11.2406   -2.3831 C   0  0  0  0  0  0  0  0  0  0  0  0
   10.7371  -11.4374   -1.5208 C   0  0  0  0  0  0  0  0  0  0  0  0
    9.4360  -11.1489   -1.9352 O   0  0  0  0  0  0  0  0  0  0  0  0
    8.5115  -10.5753   -0.9759 C   0  0  2  0  0  0  0  0  0  0  0  0
    8.4079   -9.1032   -0.9306 O   0  0  0  0  0  0  0  0  0  0  0  0
    9.4575   -8.2074   -0.7138 C   0  0  0  0  0  0  0  0  0  0  0  0
    9.4421   -6.8573   -0.8486 C   0  0  0  0  0  0  0  0  0  0  0  0
   10.6026   -6.0507   -0.5907 O   0  0  0  0  0  0  0  0  0  0  0  0
   11.8096   -6.6440   -0.1297 C   0  0  0  0  0  0  0  0  0  0  0  0
   11.8912   -7.9660    0.0028 C   0  0  0  0  0  0  0  0  0  0  0  0
   10.7381   -8.7881   -0.3297 C   0  0  0  0  0  0  0  0  0  0  0  0
   13.0873   -8.7169    0.5373 C   0  0  3  0  0  0  0  0  0  0  0  0
   13.6623   -9.5688   -0.4494 O   0  0  0  0  0  0  0  0  0  0  0  0
   14.5668  -10.4650    0.0778 C   0  0  0  0  0  0  0  0  0  0  0  0
   14.8433  -11.5234   -0.4539 O   0  0  0  0  0  0  0  0  0  0  0  0
   15.1265  -10.0364    1.2400 O   0  0  0  0  0  0  0  0  0  0  0  0
   15.3902   -8.6408    1.2848 C   0  0  3  0  0  0  0  0  0  0  0  0
   14.1972   -7.8184    0.8625 C   0  0  0  0  0  0  0  0  0  0  0  0
   14.1046   -6.4849    0.6490 C   0  0  0  0  0  0  0  0  0  0  0  0
   12.9155   -5.8837    0.1887 O   0  3  0  0  0  0  0  0  0  0  0  0
   15.2529   -5.5919    0.8787 C   0  0  0  0  0  0  0  0  0  0  0  0
   15.1216   -4.1755    0.7010 O   0  0  0  0  0  0  0  0  0  0  0  0
   15.2971   -4.7325    2.0200 O   0  0  0  0  0  0  0  0  0  0  0  0
   15.6913   -8.3040    2.6185 O   0  0  0  0  0  0  0  0  0  0  0  0
    8.2459   -6.1124   -1.3100 C   0  0  0  0  0  0  0  0  0  0  0  0
    8.1883   -5.9321   -2.6504 N   0  0  0  0  0  0  0  0  0  0  0  0
    7.0952   -5.3128   -3.1477 C   0  0  0  0  0  0  0  0  0  0  0  0
    7.0453   -5.1160   -4.4722 F   0  0  0  0  0  0  0  0  0  0  0  0
    6.0387   -4.8638   -2.3801 C   0  0  0  0  0  0  0  0  0  0  0  0
    6.0973   -5.0362   -0.9948 C   0  0  0  0  0  0  0  0  0  0  0  0
    7.2448   -5.6435   -0.4251 C   0  0  0  0  0  0  0  0  0  0  0  0
    7.3287   -5.7063    0.9825 C   0  0  0  0  0  0  0  0  0  0  0  0
    6.2946   -5.2090    1.7843 C   0  0  0  0  0  0  0  0  0  0  0  0
    5.1179   -4.7383    1.2224 C   0  0  0  0  0  0  0  0  0  0  0  0
    5.0407   -4.6170   -0.1608 C   0  0  0  0  0  0  0  0  0  0  0  0
    3.9358   -4.0869   -0.7083 F   0  0  0  0  0  0  0  0  0  0  0  0
    4.0433   -4.3719    1.9943 O   0  0  0  0  0  0  0  0  0  0  0  0
    3.9994   -5.0801    3.2622 C   0  0  1  0  0  0  0  0  0  0  0  0
    5.2161   -4.9972    4.0883 C   0  0  0  0  0  0  0  0  0  0  0  0
    5.2382   -5.0089    5.3061 O   0  0  0  0  0  0  0  0  0  0  0  0
    6.4693   -5.1058    3.2393 C   0  0  0  0  0  0  0  0  0  0  0  0
    7.5901   -5.1024    3.7245 O   0  0  0  0  0  0  0  0  0  0  0  0
    2.7612   -5.1143    3.9233 O   0  0  0  0  0  0  0  0  0  0  0  0
    3.2534   -6.3756    3.3755 C   0  0  1  0  0  0  0  0  0  0  0  0
    2.8485   -6.7547    2.0111 O   0  0  0  0  0  0  0  0  0  0  0  0
    2.0939   -7.1483    3.0151 C   0  0  0  0  0  0  0  0  0  0  0  0
    1.7154   -8.2561    3.3363 O   0  0  0  0  0  0  0  0  0  0  0  0
    8.5561  -11.4420    0.3007 C   0  0  0  0  0  0  0  0  0  0  0  0
    7.6752  -12.1613    0.7542 O   0  0  0  0  0  0  0  0  0  0  0  0
    9.9142  -11.5110    0.8919 C   0  0  0  0  0  0  0  0  0  0  0  0
   10.0902  -11.2303    2.0611 O   0  0  0  0  0  0  0  0  0  0  0  0
   11.0978  -11.6035   -0.0530 C   0  0  0  0  0  0  0  0  0  0  0  0
   12.1807  -11.5231    0.4108 O   0  0  0  0  0  0  0  0  0  0  0  0
  1  2  1  0  0  0  0
  2  3  2  0  0  0  0
  3  4  1  0  0  0  0
  3 53  1  0  0  0  0
  4  5  1  0  0  0  0
  5  6  1  1  0  0  0
  5 49  1  0  0  0  0
  6  7  1  0  0  0  0
  7  8  2  0  0  0  0
  7 12  1  0  0  0  0
  8  9  1  0  0  0  0
  8 26  1  0  0  0  0
  9 10  1  0  0  0  0
 10 11  2  0  0  0  0
 10 21  1  0  0  0  0
 11 12  1  0  0  0  0
 11 13  1  0  0  0  0
 13 14  1  0  0  0  0
 13 19  1  0  0  0  0
 14 15  1  0  0  0  0
 15 16  2  0  0  0  0
 15 17  1  0  0  0  0
 17 18  1  0  0  0  0
 18 19  1  0  0  0  0
 18 25  1  0  0  0  0
 19 20  2  0  0  0  0
 20 21  1  0  0  0  0
 20 22  1  0  0  0  0
 22 23  1  0  0  0  0
 22 24  1  0  0  0  0
 23 24  1  0  0  0  0
 26 27  2  0  0  0  0
 26 32  1  0  0  0  0
 27 28  1  0  0  0  0
 28 29  1  0  0  0  0
 28 30  2  0  0  0  0
 30 31  1  0  0  0  0
 31 32  2  0  0  0  0
 31 36  1  0  0  0  0
 32 33  1  0  0  0  0
 33 34  2  0  0  0  0
 34 35  1  0  0  0  0
 34 42  1  0  0  0  0
 35 36  2  0  0  0  0
 35 38  1  0  0  0  0
 36 37  1  0  0  0  0
 39 38  1  6  0  0  0
 39 40  1  0  0  0  0
 39 44  1  0  0  0  0
 39 45  1  0  0  0  0
 40 41  2  0  0  0  0
 40 42  1  0  0  0  0
 42 43  2  0  0  0  0
 45 44  1  6  0  0  0
 45 46  1  0  0  0  0
 45 47  1  0  0  0  0
 46 47  1  0  0  0  0
 47 48  2  0  0  0  0
 49 50  2  0  0  0  0
 49 51  1  0  0  0  0
 51 52  2  0  0  0  0
 51 53  1  0  0  0  0
 53 54  2  0  0  0  0
M  CHG  1  21   1
M  END
$$$$