
 OpenBabel04032119413D

 62 70  0  0  1  0  0  0  0  0999 V2000
   -0.3413   -8.6230    6.0932 O   0  0  0  0  0  0  0  0  0  0  0  0
   -0.2442   -9.9212    6.5941 C   0  0  3  0  0  0  0  0  0  0  0  0
    1.0893  -10.2024    6.3928 O   0  3  0  0  0  0  0  0  0  0  0  0
    1.5641  -10.2749    5.1942 C   0  0  0  0  0  0  0  0  0  0  0  0
    3.0853  -10.3202    5.1022 C   0  0  0  0  0  0  0  0  0  0  0  0
    3.6409  -10.6335    3.7344 C   0  0  0  0  0  0  0  0  0  0  0  0
    2.7569  -10.8697    2.8046 O   0  3  0  0  0  0  0  0  0  0  0  0
    1.4324  -11.1098    3.0836 C   0  0  3  0  0  0  0  0  0  0  0  0
    0.8500  -10.3048    4.0600 O   0  3  0  0  0  0  0  0  0  0  0  0
   -0.3731  -10.7062    4.4958 C   0  0  0  0  0  0  0  0  0  0  0  0
   -0.8879  -10.6534    5.6555 O   0  3  0  0  0  0  0  0  0  0  0  0
   -1.0834  -11.2646    3.5095 O   0  0  0  0  0  0  0  0  0  0  0  0
    1.4930  -12.4349    3.5686 O   0  0  0  0  0  0  0  0  0  0  0  0
    5.0451  -10.6102    3.6167 O   0  3  0  0  0  0  0  0  0  0  0  0
    5.6188  -11.3715    2.5576 C   0  0  0  0  0  0  0  0  0  0  0  0
    6.3989  -10.4634    1.5853 C   0  0  1  0  0  0  0  0  0  0  0  0
    5.4701   -9.4810    1.1183 O   0  0  0  0  0  0  0  0  0  0  0  0
    6.0228   -8.7484   -0.0236 C   0  0  1  0  0  0  0  0  0  0  0  0
    5.3080   -7.5119   -0.1421 O   0  0  0  0  0  0  0  0  0  0  0  0
    4.7556   -7.2735   -1.3802 C   0  0  0  0  0  0  0  0  0  0  0  0
    5.2975   -7.7662   -2.5700 C   0  0  0  0  0  0  0  0  0  0  0  0
    4.6085   -7.6225   -3.7752 C   0  0  0  0  0  0  0  0  0  0  0  0
    5.1592   -8.2530   -4.8522 O   0  0  0  0  0  0  0  0  0  0  0  0
    4.4177   -8.3689   -6.0148 C   0  0  0  0  0  0  0  0  0  0  0  0
    3.2233   -7.7924   -6.2167 C   0  0  0  0  0  0  0  0  0  0  0  0
    2.7250   -6.8709   -5.1377 C   0  0  0  0  0  0  0  0  0  0  0  0
    1.7713   -6.1326   -5.2666 O   0  0  0  0  0  0  0  0  0  0  0  0
    3.4247   -6.9121   -3.8460 C   0  0  0  0  0  0  0  0  0  0  0  0
    2.9217   -6.3240   -2.6832 C   0  0  0  0  0  0  0  0  0  0  0  0
    3.5803   -6.5181   -1.4561 C   0  0  0  0  0  0  0  0  0  0  0  0
    3.0057   -5.9964   -0.3214 O   0  0  0  0  0  0  0  0  0  0  0  0
    1.7563   -5.6036   -2.6429 O   0  0  0  0  0  0  0  0  0  0  0  0
    2.5331   -8.0764   -7.4962 C   0  0  0  0  0  0  0  0  0  0  0  0
    1.1713   -7.8271   -7.7259 C   0  0  0  0  0  0  0  0  0  0  0  0
    0.2876   -7.4218   -6.7625 O   0  0  0  0  0  0  0  0  0  0  0  0
    0.6012   -8.0790   -8.9681 C   0  0  0  0  0  0  0  0  0  0  0  0
   -0.7349   -7.8774   -9.1791 O   0  0  0  0  0  0  0  0  0  0  0  0
    1.3678   -8.5345  -10.0314 C   0  0  0  0  0  0  0  0  0  0  0  0
    2.7247   -8.8215   -9.8646 C   0  0  0  0  0  0  0  0  0  0  0  0
    3.2733   -8.6899   -8.5531 C   0  0  0  0  0  0  0  0  0  0  0  0
    4.5579   -9.2043   -8.3379 O   0  3  0  0  0  0  0  0  0  0  0  0
    5.1073   -9.2235   -7.0416 C   0  0  3  0  0  0  0  0  0  0  0  0
    6.4845   -8.8103   -7.0598 O   0  0  0  0  0  0  0  0  0  0  0  0
    4.9456  -10.3239   -9.1360 C   0  0  3  0  0  0  0  0  0  0  0  0
    6.2282  -10.8356   -8.7538 O   0  0  0  0  0  0  0  0  0  0  0  0
    4.7820   -9.9925  -10.5943 C   0  0  0  0  0  0  0  0  0  0  0  0
    3.6335   -9.2497  -10.9585 C   0  0  0  0  0  0  0  0  0  0  0  0
    3.4730   -8.8790  -12.3074 C   0  0  0  0  0  0  0  0  0  0  0  0
    4.4158   -9.2601  -13.2598 C   0  0  0  0  0  0  0  0  0  0  0  0
    5.5166  -10.0130  -12.8889 C   0  0  0  0  0  0  0  0  0  0  0  0
    5.6919  -10.3873  -11.5706 C   0  0  0  0  0  0  0  0  0  0  0  0
    6.7836  -11.1380  -11.2314 O   0  0  0  0  0  0  0  0  0  0  0  0
    6.4630  -10.3912  -13.7951 O   0  0  0  0  0  0  0  0  0  0  0  0
    4.3134   -8.9062  -14.5718 O   0  0  0  0  0  0  0  0  0  0  0  0
    0.7415   -8.7457  -11.2252 O   0  0  0  0  0  0  0  0  0  0  0  0
    7.5716   -8.5266    0.0110 C   0  0  1  0  0  0  0  0  0  0  0  0
    8.1766   -8.6054    1.4156 C   0  0  2  0  0  0  0  0  0  0  0  0
    7.5776   -9.7475    2.2593 C   0  0  1  0  0  0  0  0  0  0  0  0
    7.0833   -9.2031    3.5129 O   0  0  0  0  0  0  0  0  0  0  0  0
    7.9982   -7.3904    2.1519 O   0  0  0  0  0  0  0  0  0  0  0  0
    8.1577   -9.6059   -0.7406 O   0  0  0  0  0  0  0  0  0  0  0  0
    5.7415  -10.6934    4.8857 O   0  0  0  0  0  0  0  0  0  0  0  0
  1  2  1  0  0  0  0
  2  3  1  0  0  0  0
  2 11  1  0  0  0  0
  3  4  2  0  0  0  0
  4  5  1  0  0  0  0
  4  9  1  0  0  0  0
  5  6  1  0  0  0  0
  6  7  2  0  0  0  0
  6 14  1  0  0  0  0
  7  8  1  0  0  0  0
  8  9  1  0  0  0  0
  8 13  1  0  0  0  0
  9 10  1  0  0  0  0
 10 11  2  0  0  0  0
 10 12  1  0  0  0  0
 14 15  1  0  0  0  0
 14 62  1  0  0  0  0
 16 15  1  1  0  0  0
 16 17  1  0  0  0  0
 16 58  1  0  0  0  0
 17 18  1  0  0  0  0
 18 56  1  0  0  0  0
 18 19  1  1  0  0  0
 19 20  1  0  0  0  0
 20 21  2  0  0  0  0
 20 30  1  0  0  0  0
 21 22  1  0  0  0  0
 22 23  1  0  0  0  0
 22 28  2  0  0  0  0
 23 24  1  0  0  0  0
 24 25  2  0  0  0  0
 24 42  1  0  0  0  0
 25 26  1  0  0  0  0
 25 33  1  0  0  0  0
 26 27  2  0  0  0  0
 26 28  1  0  0  0  0
 28 29  1  0  0  0  0
 29 30  2  0  0  0  0
 29 32  1  0  0  0  0
 30 31  1  0  0  0  0
 33 34  2  0  0  0  0
 33 40  1  0  0  0  0
 34 35  1  0  0  0  0
 34 36  1  0  0  0  0
 36 37  1  0  0  0  0
 36 38  2  0  0  0  0
 38 39  1  0  0  0  0
 38 55  1  0  0  0  0
 39 40  2  0  0  0  0
 39 47  1  0  0  0  0
 40 41  1  0  0  0  0
 41 42  1  0  0  0  0
 41 44  1  0  0  0  0
 42 43  1  0  0  0  0
 44 45  1  0  0  0  0
 44 46  1  0  0  0  0
 46 47  2  0  0  0  0
 46 51  1  0  0  0  0
 47 48  1  0  0  0  0
 48 49  2  0  0  0  0
 49 50  1  0  0  0  0
 49 54  1  0  0  0  0
 50 51  2  0  0  0  0
 50 53  1  0  0  0  0
 51 52  1  0  0  0  0
 56 57  1  0  0  0  0
 56 61  1  6  0  0  0
 57 58  1  0  0  0  0
 57 60  1  1  0  0  0
 58 59  1  1  0  0  0
M  CHG  6   3   1   7   1   9   1  11   1  14   1  41   1
M  END
$$$$