
 OpenBabel11272001163D

 53 61  0  0  1  0  0  0  0  0999 V2000
    5.3981    5.8595    2.0620 F   0  0  0  0  0  0  0  0  0  0  0  0
    4.4475    6.0077    1.1200 C   0  0  0  0  0  0  0  0  0  0  0  0
    3.3546    5.2419    1.1003 C   0  0  0  0  0  0  0  0  0  0  0  0
    3.1767    4.2453    2.0439 O   0  0  0  0  0  0  0  0  0  0  0  0
    1.8289    3.8401    2.2999 C   0  0  2  0  0  0  0  0  0  0  0  0
    1.7718    2.7936    3.2834 O   0  0  0  0  0  0  0  0  0  0  0  0
    2.2837    3.1337    4.5354 C   0  0  0  0  0  0  0  0  0  0  0  0
    2.8596    2.2387    5.3783 C   0  0  0  0  0  0  0  0  0  0  0  0
    3.2756    2.6192    6.6751 O   0  0  0  0  0  0  0  0  0  0  0  0
    2.9513    3.8776    7.1727 C   0  0  0  0  0  0  0  0  0  0  0  0
    2.3453    4.7955    6.4112 C   0  0  0  0  0  0  0  0  0  0  0  0
    2.0351    4.5485    4.9888 C   0  0  0  0  0  0  0  0  0  0  0  0
    1.9798    6.1463    6.9457 C   0  0  3  0  0  0  0  0  0  0  0  0
    0.5663    6.2965    6.8050 O   0  0  0  0  0  0  0  0  0  0  0  0
    0.1694    7.5939    7.2182 C   0  0  0  0  0  0  0  0  0  0  0  0
    0.4747    7.8402    8.5794 O   0  0  0  0  0  0  0  0  0  0  0  0
    1.8605    7.6977    8.8443 C   0  0  3  0  0  0  0  0  0  0  0  0
    2.3330    6.3580    8.3856 C   0  0  0  0  0  0  0  0  0  0  0  0
    2.9623    5.3952    9.1038 C   0  0  0  0  0  0  0  0  0  0  0  0
    3.2675    4.1812    8.4791 N   0  0  0  0  0  0  0  0  0  0  0  0
    3.3534    5.5161   10.5321 C   0  0  0  0  0  0  0  0  0  0  0  0
    4.6568    5.9986   10.9072 O   0  0  0  0  0  0  0  0  0  0  0  0
    3.4897    6.7693   11.2288 O   0  0  0  0  0  0  0  0  0  0  0  0
    2.5877    8.7098    8.1667 O   0  0  0  0  0  0  0  0  0  0  0  0
    2.9569    0.7596    5.1535 C   0  0  0  0  0  0  0  0  0  0  0  0
    2.6843    0.0542    6.2857 N   0  0  0  0  0  0  0  0  0  0  0  0
    2.5529   -1.2787    6.1952 C   0  0  0  0  0  0  0  0  0  0  0  0
    2.2983   -1.9556    7.3235 F   0  0  0  0  0  0  0  0  0  0  0  0
    2.6359   -1.9794    5.0148 C   0  0  0  0  0  0  0  0  0  0  0  0
    2.9403   -1.2826    3.8452 C   0  0  0  0  0  0  0  0  0  0  0  0
    3.1869    0.1092    3.9049 C   0  0  0  0  0  0  0  0  0  0  0  0
    3.6360    0.7191    2.7073 C   0  0  0  0  0  0  0  0  0  0  0  0
    3.6547    0.0313    1.4806 C   0  0  0  0  0  0  0  0  0  0  0  0
    4.0368    0.7381    0.2566 C   0  0  0  0  0  0  0  0  0  0  0  0
    4.3125    1.9300    0.2645 O   0  0  0  0  0  0  0  0  0  0  0  0
    4.0473   -0.0490   -1.0305 C   0  0  0  0  0  0  0  0  0  0  0  0
    4.5532    0.4292   -2.0376 O   0  0  0  0  0  0  0  0  0  0  0  0
    3.3284   -1.3774   -0.9842 C   0  0  1  0  0  0  0  0  0  0  0  0
    3.2621   -2.0476    0.2747 O   0  0  0  0  0  0  0  0  0  0  0  0
    3.2999   -1.3021    1.4143 C   0  0  0  0  0  0  0  0  0  0  0  0
    2.9898   -1.9550    2.6083 C   0  0  0  0  0  0  0  0  0  0  0  0
    2.7018   -3.2675    2.5683 F   0  0  0  0  0  0  0  0  0  0  0  0
    1.9532   -1.2649   -1.5804 C   0  0  1  0  0  0  0  0  0  0  0  0
    1.0468   -0.3431   -0.9465 O   0  0  0  0  0  0  0  0  0  0  0  0
    1.8750   -1.2745   -3.0086 O   0  0  0  0  0  0  0  0  0  0  0  0
    1.3839   -2.3467   -2.3683 C   0  0  0  0  0  0  0  0  0  0  0  0
    1.6646   -3.5258   -2.4881 O   0  0  0  0  0  0  0  0  0  0  0  0
    1.1682    3.4332    0.9988 C   0  0  0  0  0  0  0  0  0  0  0  0
    0.6754    2.3575    0.7030 O   0  0  0  0  0  0  0  0  0  0  0  0
    1.1559    4.5944    0.0482 C   0  0  0  0  0  0  0  0  0  0  0  0
    0.1395    4.8637   -0.5711 O   0  0  0  0  0  0  0  0  0  0  0  0
    2.3683    5.5005    0.0137 C   0  0  0  0  0  0  0  0  0  0  0  0
    2.4767    6.3888   -0.8152 O   0  0  0  0  0  0  0  0  0  0  0  0
  1  2  1  0  0  0  0
  2  3  2  0  0  0  0
  3  4  1  0  0  0  0
  3 52  1  0  0  0  0
  4  5  1  0  0  0  0
  5  6  1  1  0  0  0
  5 48  1  0  0  0  0
  6  7  1  0  0  0  0
  7  8  2  0  0  0  0
  7 12  1  0  0  0  0
  8  9  1  0  0  0  0
  8 25  1  0  0  0  0
  9 10  1  0  0  0  0
 10 11  2  0  0  0  0
 10 20  1  0  0  0  0
 11 12  1  0  0  0  0
 11 13  1  0  0  0  0
 13 14  1  0  0  0  0
 13 18  1  0  0  0  0
 14 15  1  0  0  0  0
 15 16  1  0  0  0  0
 16 17  1  0  0  0  0
 17 18  1  0  0  0  0
 17 24  1  0  0  0  0
 18 19  2  0  0  0  0
 19 20  1  0  0  0  0
 19 21  1  0  0  0  0
 21 22  1  0  0  0  0
 21 23  1  0  0  0  0
 22 23  1  0  0  0  0
 25 26  2  0  0  0  0
 25 31  1  0  0  0  0
 26 27  1  0  0  0  0
 27 28  1  0  0  0  0
 27 29  2  0  0  0  0
 29 30  1  0  0  0  0
 30 31  2  0  0  0  0
 30 41  1  0  0  0  0
 31 32  1  0  0  0  0
 32 33  2  0  0  0  0
 33 34  1  0  0  0  0
 33 40  1  0  0  0  0
 34 35  2  0  0  0  0
 34 36  1  0  0  0  0
 36 37  2  0  0  0  0
 38 36  1  1  0  0  0
 38 39  1  0  0  0  0
 38 43  1  0  0  0  0
 39 40  1  0  0  0  0
 40 41  2  0  0  0  0
 41 42  1  0  0  0  0
 43 44  1  1  0  0  0
 43 45  1  0  0  0  0
 43 46  1  0  0  0  0
 45 46  1  0  0  0  0
 46 47  2  0  0  0  0
 48 49  2  0  0  0  0
 48 50  1  0  0  0  0
 50 51  2  0  0  0  0
 50 52  1  0  0  0  0
 52 53  2  0  0  0  0
M  END
$$$$