
 OpenBabel11222014563D

 54 63  0  0  1  0  0  0  0  0999 V2000
   -0.8632    6.8619    2.7000 O   0  0  0  0  0  0  0  0  0  0  0  0
   -0.5721    6.5055    1.4067 C   0  0  0  0  0  0  0  0  0  0  0  0
    0.3175    5.5445    1.1339 C   0  0  0  0  0  0  0  0  0  0  0  0
    1.0100    4.9692    2.1547 O   0  0  0  0  0  0  0  0  0  0  0  0
    1.4467    3.6355    2.1534 C   0  0  2  0  0  0  0  0  0  0  0  0
    2.5038    3.3961    3.1683 O   0  0  0  0  0  0  0  0  0  0  0  0
    2.5554    4.1250    4.3631 C   0  0  0  0  0  0  0  0  0  0  0  0
    3.2079    3.7038    5.4801 C   0  0  0  0  0  0  0  0  0  0  0  0
    3.1623    4.4840    6.6890 O   0  0  0  0  0  0  0  0  0  0  0  0
    2.4885    5.7334    6.7369 C   0  0  0  0  0  0  0  0  0  0  0  0
    1.8891    6.2071    5.6413 C   0  0  0  0  0  0  0  0  0  0  0  0
    1.8829    5.4681    4.3730 C   0  0  0  0  0  0  0  0  0  0  0  0
    1.1567    7.5191    5.5751 C   0  0  3  0  0  0  0  0  0  0  0  0
   -0.2278    7.2676    5.4178 O   0  0  0  0  0  0  0  0  0  0  0  0
   -1.0181    8.3759    5.2578 C   0  0  0  0  0  0  0  0  0  0  0  0
   -2.1142    8.3133    4.7585 O   0  0  0  0  0  0  0  0  0  0  0  0
   -0.4316    9.5404    5.6416 O   0  0  0  0  0  0  0  0  0  0  0  0
    0.5446    9.5642    6.6783 C   0  0  3  0  0  0  0  0  0  0  0  0
    1.2433    8.2544    6.8421 C   0  0  0  0  0  0  0  0  0  0  0  0
    1.8381    7.7400    7.9395 C   0  0  0  0  0  0  0  0  0  0  0  0
    2.4397    6.4740    7.9092 O   0  3  0  0  0  0  0  0  0  0  0  0
    1.9357    8.4825    9.2161 C   0  0  0  0  0  0  0  0  0  0  0  0
    2.5891    7.8964   10.3522 O   0  0  0  0  0  0  0  0  0  0  0  0
    3.1975    9.0000    9.6533 O   0  0  0  0  0  0  0  0  0  0  0  0
    1.5659   10.4665    6.3107 O   0  0  0  0  0  0  0  0  0  0  0  0
    3.9379    2.3770    5.6324 C   0  0  0  0  0  0  0  0  0  0  0  0
    3.8334    1.7595    6.8899 C   0  0  0  0  0  0  0  0  0  0  0  0
    4.3797    0.5618    7.1325 N   0  3  0  0  0  0  0  0  0  0  0  0
    4.2673    0.0209    8.3631 F   0  0  0  0  0  0  0  0  0  0  0  0
    5.0105   -0.1244    6.2031 N   0  0  0  0  0  0  0  0  0  0  0  0
    5.1676    0.3836    4.9814 C   0  0  0  0  0  0  0  0  0  0  0  0
    4.6962    1.6741    4.6261 C   0  0  0  0  0  0  0  0  0  0  0  0
    5.0291    2.1332    3.3003 C   0  0  0  0  0  0  0  0  0  0  0  0
    5.6403    1.2951    2.3555 C   0  0  0  0  0  0  0  0  0  0  0  0
    6.0489    0.0122    2.7039 C   0  0  0  0  0  0  0  0  0  0  0  0
    5.8259   -0.4039    4.0225 C   0  0  0  0  0  0  0  0  0  0  0  0
    6.2551   -1.6238    4.3785 F   0  0  0  0  0  0  0  0  0  0  0  0
    6.6631   -0.8700    1.8382 O   0  0  0  0  0  0  0  0  0  0  0  0
    6.9616   -0.5472    0.4320 C   0  0  2  0  0  0  0  0  0  0  0  0
    6.4922    0.8397    0.0924 C   0  0  0  0  0  0  0  0  0  0  0  0
    5.9008    1.6367    0.9524 C   0  0  0  0  0  0  0  0  0  0  0  0
    5.8011    2.5634    0.0006 O   0  3  0  0  0  0  0  0  0  0  0  0
    6.3767    1.7996   -0.8298 O   0  3  0  0  0  0  0  0  0  0  0  0
    6.4744   -1.6581   -0.4687 C   0  0  1  0  0  0  0  0  0  0  0  0
    7.0687   -2.9415   -0.2691 O   0  0  0  0  0  0  0  0  0  0  0  0
    5.1115   -1.6408   -0.7917 O   0  0  0  0  0  0  0  0  0  0  0  0
    5.9579   -1.3349   -1.8179 C   0  0  0  0  0  0  0  0  0  0  0  0
    6.0903   -0.2228   -2.3067 O   0  0  0  0  0  0  0  0  0  0  0  0
    2.0743    3.2376    0.8218 C   0  0  0  0  0  0  0  0  0  0  0  0
    2.8669    2.2996    0.6732 O   0  0  0  0  0  0  0  0  0  0  0  0
    1.8821    4.2559   -0.2811 C   0  0  0  0  0  0  0  0  0  0  0  0
    2.8135    4.3644   -1.0693 O   0  0  0  0  0  0  0  0  0  0  0  0
    0.7295    5.2486   -0.2500 C   0  0  0  0  0  0  0  0  0  0  0  0
    0.2799    5.7741   -1.2457 O   0  0  0  0  0  0  0  0  0  0  0  0
  1  2  1  0  0  0  0
  2  3  2  0  0  0  0
  3  4  1  0  0  0  0
  3 53  1  0  0  0  0
  4  5  1  0  0  0  0
  5  6  1  1  0  0  0
  5 49  1  0  0  0  0
  6  7  1  0  0  0  0
  7  8  2  0  0  0  0
  7 12  1  0  0  0  0
  8  9  1  0  0  0  0
  8 26  1  0  0  0  0
  9 10  1  0  0  0  0
 10 11  2  0  0  0  0
 10 21  1  0  0  0  0
 11 12  1  0  0  0  0
 11 13  1  0  0  0  0
 13 14  1  0  0  0  0
 13 19  1  0  0  0  0
 14 15  1  0  0  0  0
 15 16  2  0  0  0  0
 15 17  1  0  0  0  0
 17 18  1  0  0  0  0
 18 19  1  0  0  0  0
 18 25  1  0  0  0  0
 19 20  2  0  0  0  0
 20 21  1  0  0  0  0
 20 22  1  0  0  0  0
 22 23  1  0  0  0  0
 22 24  1  0  0  0  0
 23 24  1  0  0  0  0
 26 27  2  0  0  0  0
 26 32  1  0  0  0  0
 27 28  1  0  0  0  0
 28 29  1  0  0  0  0
 28 30  2  0  0  0  0
 30 31  1  0  0  0  0
 31 32  2  0  0  0  0
 31 36  1  0  0  0  0
 32 33  1  0  0  0  0
 33 34  2  0  0  0  0
 34 35  1  0  0  0  0
 34 41  1  0  0  0  0
 35 36  2  0  0  0  0
 35 38  1  0  0  0  0
 36 37  1  0  0  0  0
 39 38  1  1  0  0  0
 39 40  1  0  0  0  0
 39 44  1  0  0  0  0
 40 41  2  0  0  0  0
 40 43  1  0  0  0  0
 41 42  1  0  0  0  0
 42 43  2  0  0  0  0
 44 45  1  1  0  0  0
 44 46  1  0  0  0  0
 44 47  1  0  0  0  0
 46 47  1  0  0  0  0
 47 48  2  0  0  0  0
 49 50  2  0  0  0  0
 49 51  1  0  0  0  0
 51 52  2  0  0  0  0
 51 53  1  0  0  0  0
 53 54  2  0  0  0  0
M  CHG  4  21   1  28   1  42   1  43   1
M  END
$$$$