
 OpenBabel11232014343D

 54 62  0  0  1  0  0  0  0  0999 V2000
   -1.3941   -0.2811   -5.2641 O   0  0  0  0  0  0  0  0  0  0  0  0
   -1.1512    0.2480   -4.0207 C   0  0  0  0  0  0  0  0  0  0  0  0
   -0.4188   -0.3812   -3.0944 C   0  0  0  0  0  0  0  0  0  0  0  0
    0.0913   -1.6423   -3.3408 O   0  0  0  0  0  0  0  0  0  0  0  0
    1.3886   -1.8430   -2.8053 C   0  0  2  0  0  0  0  0  0  0  0  0
    1.8586   -3.1670   -3.1391 O   0  0  0  0  0  0  0  0  0  0  0  0
    2.0006   -3.5020   -4.4772 C   0  0  0  0  0  0  0  0  0  0  0  0
    1.8476   -4.7771   -4.9107 C   0  0  0  0  0  0  0  0  0  0  0  0
    2.0081   -5.1066   -6.2692 O   0  0  0  0  0  0  0  0  0  0  0  0
    2.3402   -4.1312   -7.2131 C   0  0  0  0  0  0  0  0  0  0  0  0
    2.6022   -2.8706   -6.8307 C   0  0  0  0  0  0  0  0  0  0  0  0
    2.4379   -2.4116   -5.4180 C   0  0  0  0  0  0  0  0  0  0  0  0
    3.0583   -1.8177   -7.7953 C   0  0  3  0  0  0  0  0  0  0  0  0
    4.3888   -1.4869   -7.4415 O   0  0  0  0  0  0  0  0  0  0  0  0
    5.0379   -0.5779   -8.2170 C   0  0  0  0  0  0  0  0  0  0  0  0
    6.0540   -0.0259   -7.8301 O   0  0  0  0  0  0  0  0  0  0  0  0
    4.4845   -0.3316   -9.4284 O   0  0  0  0  0  0  0  0  0  0  0  0
    3.5792   -1.2217  -10.0719 C   0  0  3  0  0  0  0  0  0  0  0  0
    3.1122   -2.3180   -9.1836 C   0  0  0  0  0  0  0  0  0  0  0  0
    2.7815   -3.5837   -9.5271 C   0  0  0  0  0  0  0  0  0  0  0  0
    2.4051   -4.4987   -8.5428 O   0  3  0  0  0  0  0  0  0  0  0  0
    2.8069   -4.0906  -10.9131 C   0  0  3  0  0  0  0  0  0  0  0  0
    2.3952   -5.4390  -11.1191 N   0  0  0  0  0  0  0  0  0  0  0  0
    3.6191   -5.2243  -11.1696 N   0  0  0  0  0  0  0  0  0  0  0  0
    2.4046   -0.5128  -10.4108 O   0  0  0  0  0  0  0  0  0  0  0  0
    1.5305   -5.9412   -4.0021 C   0  0  0  0  0  0  0  0  0  0  0  0
    1.9802   -5.9135   -2.6769 C   0  0  0  0  0  0  0  0  0  0  0  0
    1.7199   -6.9068   -1.8231 N   0  3  0  0  0  0  0  0  0  0  0  0
    2.1414   -6.7985   -0.5479 F   0  0  0  0  0  0  0  0  0  0  0  0
    1.0790   -7.9979   -2.1806 N   0  0  0  0  0  0  0  0  0  0  0  0
    0.6457   -8.1290   -3.4346 C   0  0  0  0  0  0  0  0  0  0  0  0
    0.8340   -7.1156   -4.4014 C   0  0  0  0  0  0  0  0  0  0  0  0
    0.3035   -7.3531   -5.6925 C   0  0  0  0  0  0  0  0  0  0  0  0
   -0.3538   -8.5456   -6.0191 C   0  0  0  0  0  0  0  0  0  0  0  0
   -0.8679   -8.7407   -7.3740 C   0  0  0  0  0  0  0  0  0  0  0  0
   -0.5493   -7.9616   -8.2612 O   0  0  0  0  0  0  0  0  0  0  0  0
   -1.7757   -9.9308   -7.5948 C   0  0  0  0  0  0  0  0  0  0  0  0
   -2.0781  -10.2615   -8.7306 O   0  0  0  0  0  0  0  0  0  0  0  0
   -2.2705  -10.5905   -6.3213 C   0  0  1  0  0  0  0  0  0  0  0  0
   -1.2651  -10.6604   -5.2881 O   0  0  0  0  0  0  0  0  0  0  0  0
   -0.5428   -9.5232   -5.0673 C   0  0  0  0  0  0  0  0  0  0  0  0
   -0.0227   -9.3047   -3.7912 C   0  0  0  0  0  0  0  0  0  0  0  0
   -0.2080  -10.2460   -2.8518 F   0  0  0  0  0  0  0  0  0  0  0  0
   -3.5744   -9.9868   -5.8460 C   0  0  1  0  0  0  0  0  0  0  0  0
   -4.6737  -10.0471   -6.7717 O   0  0  0  0  0  0  0  0  0  0  0  0
   -3.9177  -10.2372   -4.4747 O   0  0  0  0  0  0  0  0  0  0  0  0
   -3.6831   -8.9669   -4.8171 C   0  0  0  0  0  0  0  0  0  0  0  0
   -2.8962   -8.1337   -4.4011 O   0  0  0  0  0  0  0  0  0  0  0  0
    1.3677   -1.7348   -1.2919 C   0  0  0  0  0  0  0  0  0  0  0  0
    1.8711   -2.5498   -0.5300 O   0  0  0  0  0  0  0  0  0  0  0  0
    0.6648   -0.4853   -0.8106 C   0  0  0  0  0  0  0  0  0  0  0  0
    0.8116   -0.1131    0.3407 O   0  0  0  0  0  0  0  0  0  0  0  0
   -0.1871    0.3054   -1.7889 C   0  0  0  0  0  0  0  0  0  0  0  0
   -0.5954    1.4239   -1.5325 O   0  0  0  0  0  0  0  0  0  0  0  0
  1  2  1  0  0  0  0
  2  3  2  0  0  0  0
  3  4  1  0  0  0  0
  3 53  1  0  0  0  0
  4  5  1  0  0  0  0
  5  6  1  1  0  0  0
  5 49  1  0  0  0  0
  6  7  1  0  0  0  0
  7  8  2  0  0  0  0
  7 12  1  0  0  0  0
  8  9  1  0  0  0  0
  8 26  1  0  0  0  0
  9 10  1  0  0  0  0
 10 11  2  0  0  0  0
 10 21  1  0  0  0  0
 11 12  1  0  0  0  0
 11 13  1  0  0  0  0
 13 14  1  0  0  0  0
 13 19  1  0  0  0  0
 14 15  1  0  0  0  0
 15 16  2  0  0  0  0
 15 17  1  0  0  0  0
 17 18  1  0  0  0  0
 18 19  1  0  0  0  0
 18 25  1  0  0  0  0
 19 20  2  0  0  0  0
 20 21  1  0  0  0  0
 20 22  1  0  0  0  0
 22 23  1  0  0  0  0
 22 24  1  0  0  0  0
 23 24  2  0  0  0  0
 26 27  2  0  0  0  0
 26 32  1  0  0  0  0
 27 28  1  0  0  0  0
 28 29  1  0  0  0  0
 28 30  2  0  0  0  0
 30 31  1  0  0  0  0
 31 32  2  0  0  0  0
 31 42  1  0  0  0  0
 32 33  1  0  0  0  0
 33 34  2  0  0  0  0
 34 35  1  0  0  0  0
 34 41  1  0  0  0  0
 35 36  2  0  0  0  0
 35 37  1  0  0  0  0
 37 38  2  0  0  0  0
 39 37  1  6  0  0  0
 39 40  1  0  0  0  0
 39 44  1  0  0  0  0
 40 41  1  0  0  0  0
 41 42  2  0  0  0  0
 42 43  1  0  0  0  0
 44 45  1  6  0  0  0
 44 46  1  0  0  0  0
 44 47  1  0  0  0  0
 46 47  1  0  0  0  0
 47 48  2  0  0  0  0
 49 50  2  0  0  0  0
 49 51  1  0  0  0  0
 51 52  2  0  0  0  0
 51 53  1  0  0  0  0
 53 54  2  0  0  0  0
M  CHG  2  21   1  28   1
M  END
$$$$