
 OpenBabel11212020453D

 54 62  0  0  1  0  0  0  0  0999 V2000
    6.5131   -4.9255    1.5751 O   0  0  0  0  0  0  0  0  0  0  0  0
    6.3263   -3.6600    2.0741 C   0  0  0  0  0  0  0  0  0  0  0  0
    5.1405   -3.0394    2.0587 C   0  0  0  0  0  0  0  0  0  0  0  0
    4.0263   -3.6199    1.4899 O   0  0  0  0  0  0  0  0  0  0  0  0
    2.8826   -3.5639    2.3433 C   0  0  2  0  0  0  0  0  0  0  0  0
    1.7921   -4.3335    1.8054 O   0  0  0  0  0  0  0  0  0  0  0  0
    1.9678   -5.7062    1.6698 C   0  0  0  0  0  0  0  0  0  0  0  0
    0.9200   -6.5528    1.7525 C   0  0  0  0  0  0  0  0  0  0  0  0
    1.0317   -7.9306    1.5762 O   0  0  0  0  0  0  0  0  0  0  0  0
    2.2587   -8.4768    1.2118 C   0  0  0  0  0  0  0  0  0  0  0  0
    3.3548   -7.7119    1.0699 C   0  0  0  0  0  0  0  0  0  0  0  0
    3.3305   -6.2353    1.3128 C   0  0  0  0  0  0  0  0  0  0  0  0
    4.6646   -8.2731    0.6033 C   0  0  3  0  0  0  0  0  0  0  0  0
    5.6636   -7.9968    1.5696 O   0  0  0  0  0  0  0  0  0  0  0  0
    6.9254   -8.3174    1.1698 C   0  0  0  0  0  0  0  0  0  0  0  0
    7.9158   -7.7868    1.6443 O   0  0  0  0  0  0  0  0  0  0  0  0
    6.9776   -9.2447    0.1768 O   0  0  0  0  0  0  0  0  0  0  0  0
    5.9906  -10.2692    0.1759 C   0  0  3  0  0  0  0  0  0  0  0  0
    4.6286   -9.7507    0.4938 C   0  0  0  0  0  0  0  0  0  0  0  0
    3.5001  -10.4727    0.6887 C   0  0  0  0  0  0  0  0  0  0  0  0
    2.3053   -9.8313    0.9932 O   0  3  0  0  0  0  0  0  0  0  0  0
    3.4192  -11.9528    0.5981 C   0  0  0  0  0  0  0  0  0  0  0  0
    2.4727  -12.6738    1.4081 O   0  0  0  0  0  0  0  0  0  0  0  0
    2.2850  -12.5855   -0.0160 O   0  0  0  0  0  0  0  0  0  0  0  0
    5.8877  -10.8043   -1.1284 O   0  0  0  0  0  0  0  0  0  0  0  0
   -0.4563   -6.0832    2.0160 C   0  0  0  0  0  0  0  0  0  0  0  0
   -0.8569   -5.9898    3.3522 C   0  0  0  0  0  0  0  0  0  0  0  0
   -2.1140   -5.4979    3.6575 C   0  0  0  0  0  0  0  0  0  0  0  0
   -2.4827   -5.3960    4.9404 F   0  0  0  0  0  0  0  0  0  0  0  0
   -2.9923   -5.0948    2.6602 C   0  0  0  0  0  0  0  0  0  0  0  0
   -2.6346   -5.1633    1.2984 C   0  0  0  0  0  0  0  0  0  0  0  0
   -1.3391   -5.6677    0.9745 C   0  0  0  0  0  0  0  0  0  0  0  0
   -0.9657   -5.7061   -0.3825 C   0  0  0  0  0  0  0  0  0  0  0  0
   -1.7938   -5.1865   -1.3784 C   0  0  0  0  0  0  0  0  0  0  0  0
   -1.3498   -5.2084   -2.7779 C   0  0  0  0  0  0  0  0  0  0  0  0
   -0.3055   -5.7450   -3.1110 O   0  0  0  0  0  0  0  0  0  0  0  0
   -2.2605   -4.5226   -3.7713 C   0  0  0  0  0  0  0  0  0  0  0  0
   -2.2433   -4.8187   -4.9554 O   0  0  0  0  0  0  0  0  0  0  0  0
   -3.1560   -3.4825   -3.1412 C   0  0  1  0  0  0  0  0  0  0  0  0
   -3.8341   -4.0192   -1.9852 O   0  0  0  0  0  0  0  0  0  0  0  0
   -3.0253   -4.6346   -1.0596 C   0  0  0  0  0  0  0  0  0  0  0  0
   -3.5059   -4.7156    0.2607 C   0  0  0  0  0  0  0  0  0  0  0  0
   -4.7628   -4.1333    0.5519 N   0  0  0  0  0  0  0  0  0  0  0  0
   -2.4769   -2.1732   -2.8265 C   0  0  1  0  0  0  0  0  0  0  0  0
   -3.2988   -1.1459   -2.2408 O   0  0  0  0  0  0  0  0  0  0  0  0
   -1.1610   -2.2405   -2.2708 O   0  0  0  0  0  0  0  0  0  0  0  0
   -1.2651   -1.7367   -3.5253 C   0  0  0  0  0  0  0  0  0  0  0  0
   -0.7197   -2.1103   -4.5337 O   0  0  0  0  0  0  0  0  0  0  0  0
    2.4430   -2.1122    2.5172 C   0  0  0  0  0  0  0  0  0  0  0  0
    1.2933   -1.7348    2.6925 O   0  0  0  0  0  0  0  0  0  0  0  0
    3.6025   -1.1338    2.5377 C   0  0  0  0  0  0  0  0  0  0  0  0
    3.4073    0.0676    2.4564 O   0  0  0  0  0  0  0  0  0  0  0  0
    5.0161   -1.6763    2.6336 C   0  0  0  0  0  0  0  0  0  0  0  0
    5.9212   -1.0694    3.1753 O   0  0  0  0  0  0  0  0  0  0  0  0
  1  2  1  0  0  0  0
  2  3  2  0  0  0  0
  3  4  1  0  0  0  0
  3 53  1  0  0  0  0
  4  5  1  0  0  0  0
  5  6  1  6  0  0  0
  5 49  1  0  0  0  0
  6  7  1  0  0  0  0
  7  8  2  0  0  0  0
  7 12  1  0  0  0  0
  8  9  1  0  0  0  0
  8 26  1  0  0  0  0
  9 10  1  0  0  0  0
 10 11  2  0  0  0  0
 10 21  1  0  0  0  0
 11 12  1  0  0  0  0
 11 13  1  0  0  0  0
 13 14  1  0  0  0  0
 13 19  1  0  0  0  0
 14 15  1  0  0  0  0
 15 16  2  0  0  0  0
 15 17  1  0  0  0  0
 17 18  1  0  0  0  0
 18 19  1  0  0  0  0
 18 25  1  0  0  0  0
 19 20  2  0  0  0  0
 20 21  1  0  0  0  0
 20 22  1  0  0  0  0
 22 23  1  0  0  0  0
 22 24  1  0  0  0  0
 23 24  1  0  0  0  0
 26 27  2  0  0  0  0
 26 32  1  0  0  0  0
 27 28  1  0  0  0  0
 28 29  1  0  0  0  0
 28 30  2  0  0  0  0
 30 31  1  0  0  0  0
 31 32  2  0  0  0  0
 31 42  1  0  0  0  0
 32 33  1  0  0  0  0
 33 34  2  0  0  0  0
 34 35  1  0  0  0  0
 34 41  1  0  0  0  0
 35 36  2  0  0  0  0
 35 37  1  0  0  0  0
 37 38  2  0  0  0  0
 39 37  1  1  0  0  0
 39 40  1  0  0  0  0
 39 44  1  0  0  0  0
 40 41  1  0  0  0  0
 41 42  2  0  0  0  0
 42 43  1  0  0  0  0
 44 45  1  1  0  0  0
 44 46  1  0  0  0  0
 44 47  1  0  0  0  0
 46 47  1  0  0  0  0
 47 48  2  0  0  0  0
 49 50  2  0  0  0  0
 49 51  1  0  0  0  0
 51 52  2  0  0  0  0
 51 53  1  0  0  0  0
 53 54  2  0  0  0  0
M  CHG  1  21   1
M  END
$$$$