
 OpenBabel11212015053D

 53 61  0  0  1  0  0  0  0  0999 V2000
    6.6369    0.5041    6.7922 O   0  0  0  0  0  0  0  0  0  0  0  0
    6.5414    1.2320    5.6306 C   0  0  0  0  0  0  0  0  0  0  0  0
    5.5267    1.1034    4.7654 C   0  0  0  0  0  0  0  0  0  0  0  0
    4.5697    0.1320    4.9513 O   0  0  0  0  0  0  0  0  0  0  0  0
    3.2780    0.3388    4.3856 C   0  0  2  0  0  0  0  0  0  0  0  0
    2.4068   -0.7989    4.5979 O   0  0  0  0  0  0  0  0  0  0  0  0
    2.5109   -1.5481    5.7673 C   0  0  0  0  0  0  0  0  0  0  0  0
    2.1845   -2.8635    5.7891 C   0  0  0  0  0  0  0  0  0  0  0  0
    2.3258   -3.6554    6.9385 O   0  0  0  0  0  0  0  0  0  0  0  0
    2.7759   -3.0889    8.1275 C   0  0  0  0  0  0  0  0  0  0  0  0
    3.0408   -1.7751    8.2142 C   0  0  0  0  0  0  0  0  0  0  0  0
    2.9051   -0.8495    7.0443 C   0  0  0  0  0  0  0  0  0  0  0  0
    3.5553   -1.1431    9.4708 C   0  0  3  0  0  0  0  0  0  0  0  0
    2.5884   -0.2084    9.9089 O   0  0  0  0  0  0  0  0  0  0  0  0
    2.8806    0.4870   11.0387 C   0  0  0  0  0  0  0  0  0  0  0  0
    2.3067    1.5263   11.3187 O   0  0  0  0  0  0  0  0  0  0  0  0
    3.8519   -0.0449   11.8215 O   0  0  0  0  0  0  0  0  0  0  0  0
    4.2176   -1.4211   11.7727 C   0  0  3  0  0  0  0  0  0  0  0  0
    3.7060   -2.1234   10.5662 C   0  0  0  0  0  0  0  0  0  0  0  0
    3.4131   -3.4374   10.4271 C   0  0  0  0  0  0  0  0  0  0  0  0
    2.9435   -3.9242    9.2108 O   0  3  0  0  0  0  0  0  0  0  0  0
    3.5685   -4.4228   11.5255 C   0  0  0  0  0  0  0  0  0  0  0  0
    2.4874   -4.7024   12.4251 O   0  0  0  0  0  0  0  0  0  0  0  0
    2.9127   -5.7008   11.4772 O   0  0  0  0  0  0  0  0  0  0  0  0
    5.6276   -1.5052   11.6626 O   0  0  0  0  0  0  0  0  0  0  0  0
    1.6606   -3.6327    4.6410 C   0  0  0  0  0  0  0  0  0  0  0  0
    0.4590   -3.3570    4.0715 C   0  0  0  0  0  0  0  0  0  0  0  0
   -0.4688   -2.3208    4.4825 C   0  0  0  0  0  0  0  0  0  0  0  0
   -1.5590   -2.0340    3.7536 C   0  0  0  0  0  0  0  0  0  0  0  0
   -1.8771   -2.7244    2.5300 C   0  0  0  0  0  0  0  0  0  0  0  0
   -1.1064   -3.7289    2.0856 C   0  0  0  0  0  0  0  0  0  0  0  0
    0.0613   -4.2069    2.8899 C   0  0  0  0  0  0  0  0  0  0  0  0
    0.6107   -5.3320    2.5789 N   0  0  0  0  0  0  0  0  0  0  0  0
    1.7345   -5.9917    3.5198 P   0  0  3  0  0  0  0  0  0  0  0  0
    1.1456   -6.9064    4.5661 O   0  0  0  0  0  0  0  0  0  0  0  0
    2.4782   -4.6724    4.1989 N   0  0  0  0  0  0  0  0  0  0  0  0
   -3.0810   -2.4306    1.9204 O   0  0  0  0  0  0  0  0  0  0  0  0
   -3.5227   -1.0646    1.9235 C   0  0  2  0  0  0  0  0  0  0  0  0
   -3.1130   -0.1979    3.1001 C   0  0  0  0  0  0  0  0  0  0  0  0
   -3.2398    1.0179    3.1599 O   0  0  0  0  0  0  0  0  0  0  0  0
   -2.4067   -0.9222    4.2131 C   0  0  0  0  0  0  0  0  0  0  0  0
   -2.4620   -0.5493    5.3742 O   0  0  0  0  0  0  0  0  0  0  0  0
   -5.0232   -1.0523    1.8038 C   0  0  1  0  0  0  0  0  0  0  0  0
   -5.7532   -1.7491    2.8394 O   0  0  0  0  0  0  0  0  0  0  0  0
   -5.5975    0.2042    1.4048 O   0  0  0  0  0  0  0  0  0  0  0  0
   -5.6938   -0.8077    0.5432 C   0  0  0  0  0  0  0  0  0  0  0  0
   -5.3236   -0.9277   -0.6137 O   0  0  0  0  0  0  0  0  0  0  0  0
    3.4317    0.5761    2.8894 C   0  0  0  0  0  0  0  0  0  0  0  0
    2.8509   -0.0271    1.9994 O   0  0  0  0  0  0  0  0  0  0  0  0
    4.4283    1.6662    2.5718 C   0  0  0  0  0  0  0  0  0  0  0  0
    4.3299    2.3064    1.5378 O   0  0  0  0  0  0  0  0  0  0  0  0
    5.5308    1.9751    3.5615 C   0  0  0  0  0  0  0  0  0  0  0  0
    6.3331    2.8756    3.3815 O   0  0  0  0  0  0  0  0  0  0  0  0
  1  2  1  0  0  0  0
  2  3  2  0  0  0  0
  3  4  1  0  0  0  0
  3 52  1  0  0  0  0
  4  5  1  0  0  0  0
  5  6  1  6  0  0  0
  5 48  1  0  0  0  0
  6  7  1  0  0  0  0
  7  8  2  0  0  0  0
  7 12  1  0  0  0  0
  8  9  1  0  0  0  0
  8 26  1  0  0  0  0
  9 10  1  0  0  0  0
 10 11  2  0  0  0  0
 10 21  1  0  0  0  0
 11 12  1  0  0  0  0
 11 13  1  0  0  0  0
 13 14  1  0  0  0  0
 13 19  1  0  0  0  0
 14 15  1  0  0  0  0
 15 16  2  0  0  0  0
 15 17  1  0  0  0  0
 17 18  1  0  0  0  0
 18 19  1  0  0  0  0
 18 25  1  0  0  0  0
 19 20  2  0  0  0  0
 20 21  1  0  0  0  0
 20 22  1  0  0  0  0
 22 23  1  0  0  0  0
 22 24  1  0  0  0  0
 23 24  1  0  0  0  0
 26 27  2  0  0  0  0
 26 36  1  0  0  0  0
 27 28  1  0  0  0  0
 27 32  1  0  0  0  0
 28 29  2  0  0  0  0
 29 30  1  0  0  0  0
 29 41  1  0  0  0  0
 30 31  2  0  0  0  0
 30 37  1  0  0  0  0
 31 32  1  0  0  0  0
 32 33  2  0  0  0  0
 33 34  1  0  0  0  0
 34 35  2  0  0  0  0
 34 36  1  0  0  0  0
 38 37  1  1  0  0  0
 38 39  1  0  0  0  0
 38 43  1  0  0  0  0
 39 40  2  0  0  0  0
 39 41  1  0  0  0  0
 41 42  2  0  0  0  0
 43 44  1  1  0  0  0
 43 45  1  0  0  0  0
 43 46  1  0  0  0  0
 45 46  1  0  0  0  0
 46 47  2  0  0  0  0
 48 49  2  0  0  0  0
 48 50  1  0  0  0  0
 50 51  2  0  0  0  0
 50 52  1  0  0  0  0
 52 53  2  0  0  0  0
M  CHG  1  21   1
M  END
$$$$