
 OpenBabel10202001103D

 51 59  0  0  1  0  0  0  0  0999 V2000
    0.0602   -5.1411   -2.6655 O   0  0  0  0  0  0  0  0  0  0  0  0
    1.3141   -5.0286   -2.1353 C   0  0  0  0  0  0  0  0  0  0  0  0
    1.5753   -4.5263   -0.9222 C   0  0  0  0  0  0  0  0  0  0  0  0
    2.9847   -4.3619   -0.5210 C   0  0  0  0  0  0  0  0  0  0  0  0
    3.8990   -4.9066   -1.1376 O   0  0  0  0  0  0  0  0  0  0  0  0
    3.1943   -3.5243    0.7386 C   0  0  2  0  0  0  0  0  0  0  0  0
    2.1722   -2.5828    1.0487 O   0  0  0  0  0  0  0  0  0  0  0  0
    0.8720   -2.8690    0.8733 C   0  0  0  0  0  0  0  0  0  0  0  0
   -0.0161   -2.1641    1.3250 O   0  0  0  0  0  0  0  0  0  0  0  0
    0.5289   -4.1030    0.0257 C   0  0  0  0  0  0  0  0  0  0  0  0
   -0.5172   -4.7083    0.2007 O   0  0  0  0  0  0  0  0  0  0  0  0
    4.4398   -2.8422    0.5108 O   0  0  0  0  0  0  0  0  0  0  0  0
    5.2287   -2.4661    1.5844 C   0  0  0  0  0  0  0  0  0  0  0  0
    6.3746   -1.7759    1.3864 C   0  0  0  0  0  0  0  0  0  0  0  0
    7.2312   -1.4079    2.4276 O   0  0  0  0  0  0  0  0  0  0  0  0
    6.9516   -1.8300    3.7219 C   0  0  0  0  0  0  0  0  0  0  0  0
    5.8296   -2.5054    4.0089 C   0  0  0  0  0  0  0  0  0  0  0  0
    4.8151   -2.8596    2.9817 C   0  0  0  0  0  0  0  0  0  0  0  0
    5.6129   -2.9617    5.4093 C   0  0  0  0  0  0  0  0  0  0  0  0
    4.5465   -3.6192    5.7278 N   0  0  0  0  0  0  0  0  0  0  0  0
    4.3759   -4.0339    7.0340 C   0  0  0  0  0  0  0  0  0  0  0  0
    3.3378   -4.6155    7.3215 O   0  0  0  0  0  0  0  0  0  0  0  0
    5.3185   -3.8369    8.0236 N   0  0  0  0  0  0  0  0  0  0  0  0
    6.3903   -3.1828    7.7341 C   0  0  0  0  0  0  0  0  0  0  0  0
    6.6673   -2.6511    6.3985 C   0  0  0  0  0  0  0  0  0  0  0  0
    7.7579   -1.9542    6.0183 C   0  0  0  0  0  0  0  0  0  0  0  0
    7.8815   -1.5510    4.6936 N   0  0  0  0  0  0  0  0  0  0  0  0
    8.8810   -1.5875    6.9105 C   0  0  0  0  0  0  0  0  0  0  0  0
    9.2494   -0.2145    7.1241 O   0  0  0  0  0  0  0  0  0  0  0  0
    8.6831   -0.9850    8.1995 O   0  0  0  0  0  0  0  0  0  0  0  0
    6.8324   -1.3061    0.0583 C   0  0  0  0  0  0  0  0  0  0  0  0
    6.4097   -0.0613   -0.2564 N   0  0  0  0  0  0  0  0  0  0  0  0
    6.8596    0.4406   -1.4101 C   0  0  0  0  0  0  0  0  0  0  0  0
    7.7096   -0.1582   -2.2531 N   0  0  0  0  0  0  0  0  0  0  0  0
    8.1240   -1.3844   -1.9297 C   0  0  0  0  0  0  0  0  0  0  0  0
    7.6941   -2.0518   -0.7702 C   0  0  0  0  0  0  0  0  0  0  0  0
    8.1474   -3.3744   -0.5348 C   0  0  0  0  0  0  0  0  0  0  0  0
    9.0314   -3.9913   -1.4287 C   0  0  0  0  0  0  0  0  0  0  0  0
    9.5086   -3.3000   -2.5304 C   0  0  0  0  0  0  0  0  0  0  0  0
    9.0291   -2.0136   -2.7800 C   0  0  0  0  0  0  0  0  0  0  0  0
   10.4071   -3.7969   -3.4296 O   0  0  0  0  0  0  0  0  0  0  0  0
   11.1975   -4.9141   -3.0049 C   0  0  2  0  0  0  0  0  0  0  0  0
   10.4598   -5.9479   -2.1913 C   0  0  0  0  0  0  0  0  0  0  0  0
   10.7540   -7.1350   -2.1786 O   0  0  0  0  0  0  0  0  0  0  0  0
    9.4475   -5.3817   -1.2221 C   0  0  0  0  0  0  0  0  0  0  0  0
    9.0330   -6.0497   -0.2888 O   0  0  0  0  0  0  0  0  0  0  0  0
   12.4607   -4.4565   -2.3321 C   0  0  1  0  0  0  0  0  0  0  0  0
   13.3447   -3.6353   -3.1326 O   0  0  0  0  0  0  0  0  0  0  0  0
   12.3033   -4.0571   -0.9701 O   0  0  0  0  0  0  0  0  0  0  0  0
   13.1002   -5.1285   -1.1923 C   0  0  0  0  0  0  0  0  0  0  0  0
   14.2667   -5.2724   -0.9209 O   0  0  0  0  0  0  0  0  0  0  0  0
  1  2  1  0  0  0  0
  2  3  2  0  0  0  0
  3  4  1  0  0  0  0
  3 10  1  0  0  0  0
  4  5  2  0  0  0  0
  4  6  1  0  0  0  0
  6  7  1  0  0  0  0
  6 12  1  6  0  0  0
  7  8  1  0  0  0  0
  8  9  2  0  0  0  0
  8 10  1  0  0  0  0
 10 11  2  0  0  0  0
 12 13  1  0  0  0  0
 13 14  2  0  0  0  0
 13 18  1  0  0  0  0
 14 15  1  0  0  0  0
 14 31  1  0  0  0  0
 15 16  1  0  0  0  0
 16 17  2  0  0  0  0
 16 27  1  0  0  0  0
 17 18  1  0  0  0  0
 17 19  1  0  0  0  0
 19 20  2  0  0  0  0
 19 25  1  0  0  0  0
 20 21  1  0  0  0  0
 21 22  2  0  0  0  0
 21 23  1  0  0  0  0
 23 24  2  0  0  0  0
 24 25  1  0  0  0  0
 25 26  2  0  0  0  0
 26 27  1  0  0  0  0
 26 28  1  0  0  0  0
 28 29  1  0  0  0  0
 28 30  1  0  0  0  0
 29 30  1  0  0  0  0
 31 32  2  0  0  0  0
 31 36  1  0  0  0  0
 32 33  1  0  0  0  0
 33 34  2  0  0  0  0
 34 35  1  0  0  0  0
 35 36  2  0  0  0  0
 35 40  1  0  0  0  0
 36 37  1  0  0  0  0
 37 38  2  0  0  0  0
 38 39  1  0  0  0  0
 38 45  1  0  0  0  0
 39 40  2  0  0  0  0
 39 41  1  0  0  0  0
 42 41  1  1  0  0  0
 42 43  1  0  0  0  0
 42 47  1  0  0  0  0
 43 44  2  0  0  0  0
 43 45  1  0  0  0  0
 45 46  2  0  0  0  0
 47 48  1  6  0  0  0
 47 49  1  0  0  0  0
 47 50  1  0  0  0  0
 49 50  1  0  0  0  0
 50 51  2  0  0  0  0
M  END
$$$$