
 OpenBabel11252023073D

 54 62  0  0  1  0  0  0  0  0999 V2000
   -1.7331    0.7883    6.2498 O   0  0  0  0  0  0  0  0  0  0  0  0
   -1.3156   -0.1483    5.3391 C   0  0  0  0  0  0  0  0  0  0  0  0
   -0.5677    0.1768    4.2799 C   0  0  0  0  0  0  0  0  0  0  0  0
   -0.2049    1.4961    4.0546 O   0  0  0  0  0  0  0  0  0  0  0  0
    1.1205    1.6157    3.5443 C   0  0  2  0  0  0  0  0  0  0  0  0
    1.5351    2.9901    3.4837 O   0  0  0  0  0  0  0  0  0  0  0  0
    1.5351    3.6940    4.6808 C   0  0  0  0  0  0  0  0  0  0  0  0
    1.2843    5.0172    4.6877 C   0  0  0  0  0  0  0  0  0  0  0  0
    1.3031    5.8150    5.8141 O   0  0  0  0  0  0  0  0  0  0  0  0
    1.6154    5.2362    7.0257 C   0  0  0  0  0  0  0  0  0  0  0  0
    1.9241    3.8974    7.1404 C   0  0  0  0  0  0  0  0  0  0  0  0
    1.8804    2.9818    5.9614 C   0  0  0  0  0  0  0  0  0  0  0  0
    2.2410    3.4433    8.4134 C   0  0  0  0  0  0  0  0  0  0  0  0
    2.5254    2.0836    8.5804 O   0  0  0  0  0  0  0  0  0  0  0  0
    3.1160    1.5930    9.7463 C   0  0  0  0  0  0  0  0  0  0  0  0
    3.4892    0.4300    9.8211 O   0  0  0  0  0  0  0  0  0  0  0  0
    3.3446    2.4951   10.7324 O   0  0  0  0  0  0  0  0  0  0  0  0
    2.5476    3.6689   10.8351 C   0  0  3  0  0  0  0  0  0  0  0  0
    2.2429    4.2775    9.5130 C   0  0  0  0  0  0  0  0  0  0  0  0
    1.8874    5.6155    9.3234 C   0  0  0  0  0  0  0  0  0  0  0  0
    1.5928    6.0829    8.0735 N   0  0  0  0  0  0  0  0  0  0  0  0
    1.7984    6.5841   10.4782 C   0  0  0  0  0  0  0  0  0  0  0  0
    3.0331    7.1202   10.9772 O   0  0  0  0  0  0  0  0  0  0  0  0
    2.1290    7.9593   10.2314 O   0  0  0  0  0  0  0  0  0  0  0  0
    1.3231    3.3659   11.4761 O   0  0  0  0  0  0  0  0  0  0  0  0
    0.9551    5.7381    3.4514 C   0  0  0  0  0  0  0  0  0  0  0  0
    1.9989    6.2596    2.6994 C   0  0  0  0  0  0  0  0  0  0  0  0
    1.7571    6.8391    1.5210 N   0  3  0  0  0  0  0  0  0  0  0  0
    2.7890    7.3357    0.8127 F   0  0  0  0  0  0  0  0  0  0  0  0
    0.5421    6.9280    1.0074 N   0  0  0  0  0  0  0  0  0  0  0  0
   -0.5034    6.4412    1.6896 C   0  0  0  0  0  0  0  0  0  0  0  0
   -0.3552    5.8486    2.9540 C   0  0  0  0  0  0  0  0  0  0  0  0
   -1.5066    5.3928    3.6433 C   0  0  0  0  0  0  0  0  0  0  0  0
   -2.7753    5.4806    3.0599 C   0  0  0  0  0  0  0  0  0  0  0  0
   -3.9663    5.0317    3.7944 C   0  0  0  0  0  0  0  0  0  0  0  0
   -3.8920    4.6402    4.9467 O   0  0  0  0  0  0  0  0  0  0  0  0
   -5.2825    5.0979    3.0512 C   0  0  0  0  0  0  0  0  0  0  0  0
   -6.3485    5.0714    3.6462 O   0  0  0  0  0  0  0  0  0  0  0  0
   -5.1346    5.1571    1.5493 C   0  0  1  0  0  0  0  0  0  0  0  0
   -4.1011    6.0498    1.1039 O   0  0  0  0  0  0  0  0  0  0  0  0
   -2.9154    5.9945    1.7821 C   0  0  0  0  0  0  0  0  0  0  0  0
   -1.7824    6.4951    1.1335 C   0  0  0  0  0  0  0  0  0  0  0  0
   -1.9248    7.0264   -0.0921 F   0  0  0  0  0  0  0  0  0  0  0  0
   -4.9340    3.7897    0.9758 C   0  0  1  0  0  0  0  0  0  0  0  0
   -3.7813    3.0435    1.4502 O   0  0  0  0  0  0  0  0  0  0  0  0
   -6.1258    3.0345    0.7908 O   0  0  0  0  0  0  0  0  0  0  0  0
   -5.4538    3.3721   -0.3284 C   0  0  0  0  0  0  0  0  0  0  0  0
   -4.9313    2.6606   -1.1594 O   0  0  0  0  0  0  0  0  0  0  0  0
    1.1175    1.0511    2.1367 C   0  0  0  0  0  0  0  0  0  0  0  0
    1.5131    1.6333    1.1368 O   0  0  0  0  0  0  0  0  0  0  0  0
    0.5363   -0.3458    2.0850 C   0  0  0  0  0  0  0  0  0  0  0  0
    0.6030   -1.0051    1.0620 O   0  0  0  0  0  0  0  0  0  0  0  0
   -0.1438   -0.8922    3.3300 C   0  0  0  0  0  0  0  0  0  0  0  0
   -0.2714   -2.0858    3.5321 O   0  0  0  0  0  0  0  0  0  0  0  0
  1  2  1  0  0  0  0
  2  3  2  0  0  0  0
  3  4  1  0  0  0  0
  3 53  1  0  0  0  0
  4  5  1  0  0  0  0
  5  6  1  6  0  0  0
  5 49  1  0  0  0  0
  6  7  1  0  0  0  0
  7  8  2  0  0  0  0
  7 12  1  0  0  0  0
  8  9  1  0  0  0  0
  8 26  1  0  0  0  0
  9 10  1  0  0  0  0
 10 11  2  0  0  0  0
 10 21  1  0  0  0  0
 11 12  1  0  0  0  0
 11 13  1  0  0  0  0
 13 14  1  0  0  0  0
 13 19  2  0  0  0  0
 14 15  1  0  0  0  0
 15 16  2  0  0  0  0
 15 17  1  0  0  0  0
 17 18  1  0  0  0  0
 18 19  1  0  0  0  0
 18 25  1  0  0  0  0
 19 20  1  0  0  0  0
 20 21  2  0  0  0  0
 20 22  1  0  0  0  0
 22 23  1  0  0  0  0
 22 24  1  0  0  0  0
 23 24  1  0  0  0  0
 26 27  2  0  0  0  0
 26 32  1  0  0  0  0
 27 28  1  0  0  0  0
 28 29  1  0  0  0  0
 28 30  2  0  0  0  0
 30 31  1  0  0  0  0
 31 32  2  0  0  0  0
 31 42  1  0  0  0  0
 32 33  1  0  0  0  0
 33 34  2  0  0  0  0
 34 35  1  0  0  0  0
 34 41  1  0  0  0  0
 35 36  2  0  0  0  0
 35 37  1  0  0  0  0
 37 38  2  0  0  0  0
 39 37  1  1  0  0  0
 39 40  1  0  0  0  0
 39 44  1  0  0  0  0
 40 41  1  0  0  0  0
 41 42  2  0  0  0  0
 42 43  1  0  0  0  0
 44 45  1  1  0  0  0
 44 46  1  0  0  0  0
 44 47  1  0  0  0  0
 46 47  1  0  0  0  0
 47 48  2  0  0  0  0
 49 50  2  0  0  0  0
 49 51  1  0  0  0  0
 51 52  2  0  0  0  0
 51 53  1  0  0  0  0
 53 54  2  0  0  0  0
M  CHG  1  28   1
M  END
$$$$