
 OpenBabel11212022323D

 54 62  0  0  1  0  0  0  0  0999 V2000
    5.7489   -3.5535   -0.2636 O   0  0  0  0  0  0  0  0  0  0  0  0
    4.8458   -2.5826   -0.6158 C   0  0  0  0  0  0  0  0  0  0  0  0
    3.5966   -2.5420   -0.1382 C   0  0  0  0  0  0  0  0  0  0  0  0
    3.0881   -3.5284    0.6914 O   0  0  0  0  0  0  0  0  0  0  0  0
    2.5395   -3.0192    1.9027 C   0  0  2  0  0  0  0  0  0  0  0  0
    1.6981   -3.9912    2.5892 O   0  0  0  0  0  0  0  0  0  0  0  0
    2.0647   -5.3225    2.6227 C   0  0  0  0  0  0  0  0  0  0  0  0
    1.1160   -6.2838    2.6271 C   0  0  0  0  0  0  0  0  0  0  0  0
    1.4234   -7.6441    2.6567 O   0  0  0  0  0  0  0  0  0  0  0  0
    2.7605   -8.0530    2.6345 C   0  0  0  0  0  0  0  0  0  0  0  0
    3.7722   -7.1655    2.7040 C   0  0  0  0  0  0  0  0  0  0  0  0
    3.5300   -5.6790    2.7502 C   0  0  0  0  0  0  0  0  0  0  0  0
    5.2172   -7.6023    2.6702 C   0  0  3  0  0  0  0  0  0  0  0  0
    5.8006   -7.3125    3.9284 O   0  0  0  0  0  0  0  0  0  0  0  0
    7.1105   -7.6589    4.0947 C   0  0  0  0  0  0  0  0  0  0  0  0
    7.7736   -7.2283    5.0225 O   0  0  0  0  0  0  0  0  0  0  0  0
    7.6199   -8.4878    3.1497 O   0  0  0  0  0  0  0  0  0  0  0  0
    6.8015   -9.4492    2.4812 C   0  0  3  0  0  0  0  0  0  0  0  0
    5.3542   -9.0719    2.4991 C   0  0  0  0  0  0  0  0  0  0  0  0
    4.2917   -9.9075    2.4490 C   0  0  0  0  0  0  0  0  0  0  0  0
    3.0027   -9.4035    2.5380 O   0  3  0  0  0  0  0  0  0  0  0  0
    4.3760  -11.3854    2.3260 C   0  0  0  0  0  0  0  0  0  0  0  0
    3.8110  -12.2279    3.3411 O   0  0  0  0  0  0  0  0  0  0  0  0
    3.1878  -12.1502    2.0461 O   0  0  0  0  0  0  0  0  0  0  0  0
    7.2994   -9.5957    0.7391 S   0  0  0  0  0  0  0  0  0  0  0  0
   -0.3417   -5.9835    2.6397 C   0  0  0  0  0  0  0  0  0  0  0  0
   -0.9605   -5.7438    3.8670 C   0  0  0  0  0  0  0  0  0  0  0  0
   -2.2735   -5.4884    3.9367 N   0  3  0  0  0  0  0  0  0  0  0  0
   -2.8474   -5.3106    5.1428 F   0  0  0  0  0  0  0  0  0  0  0  0
   -3.0441   -5.4330    2.8683 N   0  0  0  0  0  0  0  0  0  0  0  0
   -2.5190   -5.6405    1.6587 C   0  0  0  0  0  0  0  0  0  0  0  0
   -1.1507   -5.9350    1.4828 C   0  0  0  0  0  0  0  0  0  0  0  0
   -0.6853   -6.1890    0.1727 C   0  0  0  0  0  0  0  0  0  0  0  0
   -1.5634   -6.1677   -0.9241 C   0  0  0  0  0  0  0  0  0  0  0  0
   -1.0926   -6.5818   -2.2504 C   0  0  0  0  0  0  0  0  0  0  0  0
    0.0458   -6.9961   -2.3972 O   0  0  0  0  0  0  0  0  0  0  0  0
   -2.1150   -6.5611   -3.3669 C   0  0  0  0  0  0  0  0  0  0  0  0
   -1.9740   -7.2660   -4.3539 O   0  0  0  0  0  0  0  0  0  0  0  0
   -3.2860   -5.6422   -3.1081 C   0  0  1  0  0  0  0  0  0  0  0  0
   -3.8057   -5.7580   -1.7731 O   0  0  0  0  0  0  0  0  0  0  0  0
   -2.8954   -5.8326   -0.7565 C   0  0  0  0  0  0  0  0  0  0  0  0
   -3.3522   -5.5874    0.5381 C   0  0  0  0  0  0  0  0  0  0  0  0
   -4.6539   -5.3115    0.7205 F   0  0  0  0  0  0  0  0  0  0  0  0
   -2.9323   -4.2218   -3.4132 C   0  0  1  0  0  0  0  0  0  0  0  0
   -1.8493   -3.6448   -2.6339 O   0  0  0  0  0  0  0  0  0  0  0  0
   -2.9525   -3.8762   -4.7950 O   0  0  0  0  0  0  0  0  0  0  0  0
   -3.8618   -3.2477   -4.0089 C   0  0  0  0  0  0  0  0  0  0  0  0
   -3.9862   -2.0857   -3.7507 O   0  0  0  0  0  0  0  0  0  0  0  0
    1.5741   -1.8536    1.7281 C   0  0  0  0  0  0  0  0  0  0  0  0
    0.8821   -1.3762    2.6165 O   0  0  0  0  0  0  0  0  0  0  0  0
    1.4585   -1.3849    0.3019 C   0  0  0  0  0  0  0  0  0  0  0  0
    0.3636   -1.1306   -0.1706 O   0  0  0  0  0  0  0  0  0  0  0  0
    2.7071   -1.4227   -0.5472 C   0  0  0  0  0  0  0  0  0  0  0  0
    2.9380   -0.6127   -1.4222 O   0  0  0  0  0  0  0  0  0  0  0  0
  1  2  1  0  0  0  0
  2  3  2  0  0  0  0
  3  4  1  0  0  0  0
  3 53  1  0  0  0  0
  4  5  1  0  0  0  0
  5  6  1  6  0  0  0
  5 49  1  0  0  0  0
  6  7  1  0  0  0  0
  7  8  2  0  0  0  0
  7 12  1  0  0  0  0
  8  9  1  0  0  0  0
  8 26  1  0  0  0  0
  9 10  1  0  0  0  0
 10 11  2  0  0  0  0
 10 21  1  0  0  0  0
 11 12  1  0  0  0  0
 11 13  1  0  0  0  0
 13 14  1  0  0  0  0
 13 19  1  0  0  0  0
 14 15  1  0  0  0  0
 15 16  2  0  0  0  0
 15 17  1  0  0  0  0
 17 18  1  0  0  0  0
 18 19  1  0  0  0  0
 18 25  1  0  0  0  0
 19 20  2  0  0  0  0
 20 21  1  0  0  0  0
 20 22  1  0  0  0  0
 22 23  1  0  0  0  0
 22 24  1  0  0  0  0
 23 24  1  0  0  0  0
 26 27  2  0  0  0  0
 26 32  1  0  0  0  0
 27 28  1  0  0  0  0
 28 29  1  0  0  0  0
 28 30  2  0  0  0  0
 30 31  1  0  0  0  0
 31 32  2  0  0  0  0
 31 42  1  0  0  0  0
 32 33  1  0  0  0  0
 33 34  2  0  0  0  0
 34 35  1  0  0  0  0
 34 41  1  0  0  0  0
 35 36  2  0  0  0  0
 35 37  1  0  0  0  0
 37 38  2  0  0  0  0
 39 37  1  1  0  0  0
 39 40  1  0  0  0  0
 39 44  1  0  0  0  0
 40 41  1  0  0  0  0
 41 42  2  0  0  0  0
 42 43  1  0  0  0  0
 44 45  1  1  0  0  0
 44 46  1  0  0  0  0
 44 47  1  0  0  0  0
 46 47  1  0  0  0  0
 47 48  2  0  0  0  0
 49 50  2  0  0  0  0
 49 51  1  0  0  0  0
 51 52  2  0  0  0  0
 51 53  1  0  0  0  0
 53 54  2  0  0  0  0
M  CHG  2  21   1  28   1
M  END
$$$$