
 OpenBabel11222021543D

 54 62  0  0  1  0  0  0  0  0999 V2000
    6.8698    3.4996    3.1583 O   0  0  0  0  0  0  0  0  0  0  0  0
    6.1200    4.1241    2.1921 C   0  0  0  0  0  0  0  0  0  0  0  0
    4.8121    3.8907    2.0342 C   0  0  0  0  0  0  0  0  0  0  0  0
    4.1706    2.9711    2.8491 O   0  0  0  0  0  0  0  0  0  0  0  0
    2.7783    3.1948    3.0072 C   0  0  2  0  0  0  0  0  0  0  0  0
    2.1957    2.1806    3.8491 O   0  0  0  0  0  0  0  0  0  0  0  0
    2.6467    2.0957    5.1568 C   0  0  0  0  0  0  0  0  0  0  0  0
    2.6600    0.9133    5.8161 C   0  0  0  0  0  0  0  0  0  0  0  0
    3.1033    0.8195    7.1465 O   0  0  0  0  0  0  0  0  0  0  0  0
    3.3969    1.9849    7.8726 C   0  0  0  0  0  0  0  0  0  0  0  0
    3.2955    3.2014    7.3056 C   0  0  0  0  0  0  0  0  0  0  0  0
    3.0035    3.3820    5.8511 C   0  0  0  0  0  0  0  0  0  0  0  0
    3.4491    4.4737    8.0935 C   0  0  3  0  0  0  0  0  0  0  0  0
    2.1664    5.0790    8.1202 O   0  0  0  0  0  0  0  0  0  0  0  0
    1.9953    6.1969    8.8755 C   0  0  0  0  0  0  0  0  0  0  0  0
    0.9990    6.8904    8.7591 O   0  0  0  0  0  0  0  0  0  0  0  0
    2.9912    6.4813    9.7467 O   0  0  0  0  0  0  0  0  0  0  0  0
    3.8973    5.5001   10.2385 C   0  0  3  0  0  0  0  0  0  0  0  0
    3.8086    4.2115    9.5011 C   0  0  0  0  0  0  0  0  0  0  0  0
    3.9823    2.9668    9.9973 C   0  0  0  0  0  0  0  0  0  0  0  0
    3.7706    1.8517    9.1943 O   0  3  0  0  0  0  0  0  0  0  0  0
    4.3595    2.6958   11.4029 C   0  0  0  0  0  0  0  0  0  0  0  0
    3.3563    2.4964   12.4055 O   0  0  0  0  0  0  0  0  0  0  0  0
    4.1667    1.3882   11.9681 O   0  0  0  0  0  0  0  0  0  0  0  0
    5.2180    5.9542   10.0290 O   0  0  0  0  0  0  0  0  0  0  0  0
    2.1562   -0.3612    5.1936 C   0  0  0  0  0  0  0  0  0  0  0  0
    1.0010   -0.2917    4.4013 C   0  0  0  0  0  0  0  0  0  0  0  0
    0.5056   -1.3691    3.7879 N   0  3  0  0  0  0  0  0  0  0  0  0
   -0.5783   -1.2346    2.9989 F   0  0  0  0  0  0  0  0  0  0  0  0
    1.0317   -2.5659    3.9324 N   0  0  0  0  0  0  0  0  0  0  0  0
    2.1117   -2.7278    4.6980 C   0  0  0  0  0  0  0  0  0  0  0  0
    2.7383   -1.6478    5.3582 C   0  0  0  0  0  0  0  0  0  0  0  0
    3.8934   -1.9442    6.1284 C   0  0  0  0  0  0  0  0  0  0  0  0
    4.3713   -3.2618    6.2756 C   0  0  0  0  0  0  0  0  0  0  0  0
    5.4907   -3.5404    7.1758 C   0  0  0  0  0  0  0  0  0  0  0  0
    5.9996   -2.6284    7.8102 O   0  0  0  0  0  0  0  0  0  0  0  0
    5.9465   -4.9788    7.3129 C   0  0  0  0  0  0  0  0  0  0  0  0
    6.7724   -5.2863    8.1584 O   0  0  0  0  0  0  0  0  0  0  0  0
    5.4109   -5.9344    6.2695 C   0  0  1  0  0  0  0  0  0  0  0  0
    4.1092   -5.6127    5.7522 O   0  0  0  0  0  0  0  0  0  0  0  0
    3.7482   -4.3072    5.6327 C   0  0  0  0  0  0  0  0  0  0  0  0
    2.6277   -4.0176    4.8511 C   0  0  0  0  0  0  0  0  0  0  0  0
    2.0023   -5.0300    4.2288 F   0  0  0  0  0  0  0  0  0  0  0  0
    6.3892   -6.1713    5.1459 C   0  0  1  0  0  0  0  0  0  0  0  0
    5.8067   -7.2065    3.8237 Cl  0  0  0  0  0  0  0  0  0  0  0  0
    7.1167   -4.9840    4.7794 O   0  0  0  0  0  0  0  0  0  0  0  0
    7.8242   -6.0083    5.2791 C   0  0  0  0  0  0  0  0  0  0  0  0
    8.7977   -6.5863    4.8227 O   0  0  0  0  0  0  0  0  0  0  0  0
    2.1026    3.1065    1.6581 C   0  0  0  0  0  0  0  0  0  0  0  0
    1.2127    2.3214    1.3648 O   0  0  0  0  0  0  0  0  0  0  0  0
    2.6756    4.1157    0.6951 C   0  0  0  0  0  0  0  0  0  0  0  0
    1.9859    4.5506   -0.2090 O   0  0  0  0  0  0  0  0  0  0  0  0
    4.0902    4.6178    0.9435 C   0  0  0  0  0  0  0  0  0  0  0  0
    4.5576    5.5633    0.3353 O   0  0  0  0  0  0  0  0  0  0  0  0
  1  2  1  0  0  0  0
  2  3  2  0  0  0  0
  3  4  1  0  0  0  0
  3 53  1  0  0  0  0
  4  5  1  0  0  0  0
  5  6  1  1  0  0  0
  5 49  1  0  0  0  0
  6  7  1  0  0  0  0
  7  8  2  0  0  0  0
  7 12  1  0  0  0  0
  8  9  1  0  0  0  0
  8 26  1  0  0  0  0
  9 10  1  0  0  0  0
 10 11  2  0  0  0  0
 10 21  1  0  0  0  0
 11 12  1  0  0  0  0
 11 13  1  0  0  0  0
 13 14  1  0  0  0  0
 13 19  1  0  0  0  0
 14 15  1  0  0  0  0
 15 16  2  0  0  0  0
 15 17  1  0  0  0  0
 17 18  1  0  0  0  0
 18 19  1  0  0  0  0
 18 25  1  0  0  0  0
 19 20  2  0  0  0  0
 20 21  1  0  0  0  0
 20 22  1  0  0  0  0
 22 23  1  0  0  0  0
 22 24  1  0  0  0  0
 23 24  1  0  0  0  0
 26 27  2  0  0  0  0
 26 32  1  0  0  0  0
 27 28  1  0  0  0  0
 28 29  1  0  0  0  0
 28 30  2  0  0  0  0
 30 31  1  0  0  0  0
 31 32  2  0  0  0  0
 31 42  1  0  0  0  0
 32 33  1  0  0  0  0
 33 34  2  0  0  0  0
 34 35  1  0  0  0  0
 34 41  1  0  0  0  0
 35 36  2  0  0  0  0
 35 37  1  0  0  0  0
 37 38  2  0  0  0  0
 39 37  1  1  0  0  0
 39 40  1  0  0  0  0
 39 44  1  0  0  0  0
 40 41  1  0  0  0  0
 41 42  2  0  0  0  0
 42 43  1  0  0  0  0
 44 45  1  6  0  0  0
 44 46  1  0  0  0  0
 44 47  1  0  0  0  0
 46 47  1  0  0  0  0
 47 48  2  0  0  0  0
 49 50  2  0  0  0  0
 49 51  1  0  0  0  0
 51 52  2  0  0  0  0
 51 53  1  0  0  0  0
 53 54  2  0  0  0  0
M  CHG  2  21   1  28   1
M  END
$$$$