
 OpenBabel11152012423D

 53 61  0  0  1  0  0  0  0  0999 V2000
    6.2088    5.1704    3.4746 O   0  0  0  0  0  0  0  0  0  0  0  0
    5.5026    5.4430    2.3316 C   0  0  0  0  0  0  0  0  0  0  0  0
    4.4550    4.7104    1.9334 C   0  0  0  0  0  0  0  0  0  0  0  0
    4.0633    3.5911    2.6443 O   0  0  0  0  0  0  0  0  0  0  0  0
    2.6576    3.3512    2.6593 C   0  0  2  0  0  0  0  0  0  0  0  0
    2.3240    2.2196    3.4730 O   0  0  0  0  0  0  0  0  0  0  0  0
    2.6754    2.2964    4.8156 C   0  0  0  0  0  0  0  0  0  0  0  0
    3.0026    1.1887    5.5102 C   0  0  0  0  0  0  0  0  0  0  0  0
    3.3590    1.2114    6.8512 O   0  0  0  0  0  0  0  0  0  0  0  0
    3.3853    2.4159    7.5400 C   0  0  0  0  0  0  0  0  0  0  0  0
    3.0291    3.5724    6.9564 C   0  0  0  0  0  0  0  0  0  0  0  0
    2.6420    3.6367    5.5100 C   0  0  0  0  0  0  0  0  0  0  0  0
    3.0494    4.8681    7.7104 C   0  0  3  0  0  0  0  0  0  0  0  0
    1.7282    5.4015    7.6822 O   0  0  0  0  0  0  0  0  0  0  0  0
    1.3394    6.3760    8.5412 C   0  0  0  0  0  0  0  0  0  0  0  0
    0.2660    6.9477    8.4052 O   0  0  0  0  0  0  0  0  0  0  0  0
    2.1742    6.6823    9.5627 O   0  0  0  0  0  0  0  0  0  0  0  0
    3.3961    6.0063    9.8191 C   0  0  3  0  0  0  0  0  0  0  0  0
    3.4695    4.7100    9.1166 C   0  0  0  0  0  0  0  0  0  0  0  0
    3.8468    3.5251    9.6388 C   0  0  0  0  0  0  0  0  0  0  0  0
    3.8103    2.3667    8.8593 O   0  0  0  0  0  0  0  0  0  0  0  0
    4.3258    3.3439   11.0254 C   0  0  0  0  0  0  0  0  0  0  0  0
    3.4152    3.1281   12.1142 O   0  0  0  0  0  0  0  0  0  0  0  0
    4.2957    2.0693   11.6876 O   0  0  0  0  0  0  0  0  0  0  0  0
    4.4710    6.8107    9.3661 O   0  0  0  0  0  0  0  0  0  0  0  0
    3.0781   -0.1548    4.9151 C   0  0  0  0  0  0  0  0  0  0  0  0
    4.3079   -0.4751    4.4605 N   0  0  0  0  0  0  0  0  0  0  0  0
    4.5080   -1.6578    3.9642 N   0  0  0  0  0  0  0  0  0  0  0  0
    3.5584   -2.5634    3.9127 N   0  0  0  0  0  0  0  0  0  0  0  0
    2.3188   -2.2936    4.3528 C   0  0  0  0  0  0  0  0  0  0  0  0
    2.0024   -1.0439    4.8776 C   0  0  0  0  0  0  0  0  0  0  0  0
    0.6752   -0.7761    5.3170 C   0  0  0  0  0  0  0  0  0  0  0  0
   -0.3176   -1.7580    5.2277 C   0  0  0  0  0  0  0  0  0  0  0  0
   -1.7041   -1.4565    5.6017 C   0  0  0  0  0  0  0  0  0  0  0  0
   -2.0401   -0.3642    6.0272 O   0  0  0  0  0  0  0  0  0  0  0  0
   -2.7054   -2.5815    5.4668 C   0  0  0  0  0  0  0  0  0  0  0  0
   -3.9092   -2.3764    5.5182 O   0  0  0  0  0  0  0  0  0  0  0  0
   -2.0899   -3.9579    5.4357 C   0  0  1  0  0  0  0  0  0  0  0  0
   -0.8889   -4.0575    4.6554 O   0  0  0  0  0  0  0  0  0  0  0  0
   -0.0027   -3.0195    4.7544 C   0  0  0  0  0  0  0  0  0  0  0  0
    1.3034   -3.2633    4.3090 C   0  0  0  0  0  0  0  0  0  0  0  0
    1.5984   -4.5160    3.8122 O   0  0  0  0  0  0  0  0  0  0  0  0
   -1.8862   -4.5339    6.8064 C   0  0  1  0  0  0  0  0  0  0  0  0
   -1.2773   -5.8464    6.8558 O   0  0  0  0  0  0  0  0  0  0  0  0
   -1.4406   -3.6086    7.7957 O   0  0  0  0  0  0  0  0  0  0  0  0
   -2.6644   -4.1603    7.9995 C   0  0  0  0  0  0  0  0  0  0  0  0
   -3.0455   -4.8338    8.9184 O   0  0  0  0  0  0  0  0  0  0  0  0
    2.1669    3.1293    1.2402 C   0  0  0  0  0  0  0  0  0  0  0  0
    1.5006    2.1919    0.8295 O   0  0  0  0  0  0  0  0  0  0  0  0
    2.5449    4.2749    0.3378 C   0  0  0  0  0  0  0  0  0  0  0  0
    1.8380    4.5621   -0.6158 O   0  0  0  0  0  0  0  0  0  0  0  0
    3.7521    5.1224    0.6850 C   0  0  0  0  0  0  0  0  0  0  0  0
    4.0773    6.0835    0.0065 O   0  0  0  0  0  0  0  0  0  0  0  0
  1  2  1  0  0  0  0
  2  3  2  0  0  0  0
  3  4  1  0  0  0  0
  3 52  1  0  0  0  0
  4  5  1  0  0  0  0
  5  6  1  1  0  0  0
  5 48  1  0  0  0  0
  6  7  1  0  0  0  0
  7  8  2  0  0  0  0
  7 12  1  0  0  0  0
  8  9  1  0  0  0  0
  8 26  1  0  0  0  0
  9 10  1  0  0  0  0
 10 11  2  0  0  0  0
 10 21  1  0  0  0  0
 11 12  1  0  0  0  0
 11 13  1  0  0  0  0
 13 14  1  0  0  0  0
 13 19  1  0  0  0  0
 14 15  1  0  0  0  0
 15 16  2  0  0  0  0
 15 17  1  0  0  0  0
 17 18  1  0  0  0  0
 18 19  1  0  0  0  0
 18 25  1  0  0  0  0
 19 20  2  0  0  0  0
 20 21  1  0  0  0  0
 20 22  1  0  0  0  0
 22 23  1  0  0  0  0
 22 24  1  0  0  0  0
 23 24  1  0  0  0  0
 26 27  2  0  0  0  0
 26 31  1  0  0  0  0
 27 28  1  0  0  0  0
 28 29  2  0  0  0  0
 29 30  1  0  0  0  0
 30 31  2  0  0  0  0
 30 41  1  0  0  0  0
 31 32  1  0  0  0  0
 32 33  2  0  0  0  0
 33 34  1  0  0  0  0
 33 40  1  0  0  0  0
 34 35  2  0  0  0  0
 34 36  1  0  0  0  0
 36 37  2  0  0  0  0
 38 36  1  1  0  0  0
 38 39  1  0  0  0  0
 38 43  1  0  0  0  0
 39 40  1  0  0  0  0
 40 41  2  0  0  0  0
 41 42  1  0  0  0  0
 43 44  1  1  0  0  0
 43 45  1  0  0  0  0
 43 46  1  0  0  0  0
 45 46  1  0  0  0  0
 46 47  2  0  0  0  0
 48 49  2  0  0  0  0
 48 50  1  0  0  0  0
 50 51  2  0  0  0  0
 50 52  1  0  0  0  0
 52 53  2  0  0  0  0
M  END
$$$$