
 OpenBabel09262021413D

 52 60  0  0  1  0  0  0  0  0999 V2000
    1.8716   -2.2692    6.2536 O   0  0  0  0  0  0  0  0  0  0  0  0
    1.9090   -2.5026    4.9050 C   0  0  0  0  0  0  0  0  0  0  0  0
    1.6056   -1.5545    4.0094 C   0  0  0  0  0  0  0  0  0  0  0  0
    1.2102   -0.2932    4.4159 O   0  0  0  0  0  0  0  0  0  0  0  0
    1.7303    0.7868    3.6304 C   0  0  2  0  0  0  0  0  0  0  0  0
    1.4458    2.0699    4.2131 O   0  0  0  0  0  0  0  0  0  0  0  0
    2.0163    2.3471    5.4554 C   0  0  0  0  0  0  0  0  0  0  0  0
    2.3321    3.6095    5.8269 C   0  0  0  0  0  0  0  0  0  0  0  0
    2.8925    3.9219    7.0690 O   0  0  0  0  0  0  0  0  0  0  0  0
    3.2805    2.8942    7.9195 C   0  0  0  0  0  0  0  0  0  0  0  0
    3.0060    1.6139    7.6362 C   0  0  0  0  0  0  0  0  0  0  0  0
    2.2658    1.2048    6.4161 C   0  0  0  0  0  0  0  0  0  0  0  0
    3.5564    0.5550    8.5275 C   0  0  0  0  0  0  0  0  0  0  0  0
    3.3559   -0.6957    8.2765 N   0  0  0  0  0  0  0  0  0  0  0  0
    3.9059   -1.6560    9.0956 C   0  0  0  0  0  0  0  0  0  0  0  0
    3.6935   -2.8312    8.8172 O   0  0  0  0  0  0  0  0  0  0  0  0
    4.6878   -1.3581   10.1946 N   0  0  0  0  0  0  0  0  0  0  0  0
    4.9092   -0.1185   10.4711 C   0  0  0  0  0  0  0  0  0  0  0  0
    4.3681    0.9895    9.6810 C   0  0  0  0  0  0  0  0  0  0  0  0
    4.5599    2.3047    9.9057 C   0  0  0  0  0  0  0  0  0  0  0  0
    3.9899    3.2348    9.0442 N   0  0  0  0  0  0  0  0  0  0  0  0
    5.3652    2.8536   11.0197 C   0  0  0  0  0  0  0  0  0  0  0  0
    6.7750    3.0861   10.8811 O   0  0  0  0  0  0  0  0  0  0  0  0
    5.8694    4.2002   11.0042 O   0  0  0  0  0  0  0  0  0  0  0  0
    2.2667    4.7680    4.9130 C   0  0  0  0  0  0  0  0  0  0  0  0
    3.4352    4.9687    4.2639 N   0  0  0  0  0  0  0  0  0  0  0  0
    3.4724    6.0091    3.4363 C   0  0  0  0  0  0  0  0  0  0  0  0
    2.4642    6.8507    3.1967 N   0  0  0  0  0  0  0  0  0  0  0  0
    1.3006    6.6632    3.8432 C   0  0  0  0  0  0  0  0  0  0  0  0
    1.1413    5.6024    4.7561 C   0  0  0  0  0  0  0  0  0  0  0  0
   -0.0861    5.4609    5.4490 C   0  0  0  0  0  0  0  0  0  0  0  0
   -1.1444    6.3461    5.2162 C   0  0  0  0  0  0  0  0  0  0  0  0
   -2.3841    6.2357    5.9964 C   0  0  0  0  0  0  0  0  0  0  0  0
   -2.4907    5.4550    6.9285 O   0  0  0  0  0  0  0  0  0  0  0  0
   -3.5431    7.1170    5.5886 C   0  0  0  0  0  0  0  0  0  0  0  0
   -4.5913    7.1223    6.2194 O   0  0  0  0  0  0  0  0  0  0  0  0
   -3.3646    7.8203    4.2697 C   0  0  1  0  0  0  0  0  0  0  0  0
   -2.0256    8.2515    4.0114 O   0  0  0  0  0  0  0  0  0  0  0  0
   -1.0173    7.3642    4.2822 C   0  0  0  0  0  0  0  0  0  0  0  0
    0.2147    7.5422    3.6172 C   0  0  0  0  0  0  0  0  0  0  0  0
    0.4110    8.9627    2.4398 P   0  0  0  0  0  0  0  0  0  0  0  0
   -3.9151    7.0347    3.1156 C   0  0  1  0  0  0  0  0  0  0  0  0
   -3.7809    7.6429    1.8081 O   0  0  0  0  0  0  0  0  0  0  0  0
   -3.6857    5.6282    3.1717 O   0  0  0  0  0  0  0  0  0  0  0  0
   -4.9772    6.0281    3.2310 C   0  0  0  0  0  0  0  0  0  0  0  0
   -5.8910    5.7683    2.4843 O   0  0  0  0  0  0  0  0  0  0  0  0
    1.0668    0.6376    2.2736 C   0  0  0  0  0  0  0  0  0  0  0  0
    0.3524    1.4511    1.7083 O   0  0  0  0  0  0  0  0  0  0  0  0
    1.3634   -0.7085    1.6546 C   0  0  0  0  0  0  0  0  0  0  0  0
    1.4514   -0.8186    0.4418 O   0  0  0  0  0  0  0  0  0  0  0  0
    1.6311   -1.8963    2.5626 C   0  0  0  0  0  0  0  0  0  0  0  0
    1.8622   -3.0103    2.1243 O   0  0  0  0  0  0  0  0  0  0  0  0
  1  2  1  0  0  0  0
  2  3  2  0  0  0  0
  3  4  1  0  0  0  0
  3 51  1  0  0  0  0
  4  5  1  0  0  0  0
  5  6  1  1  0  0  0
  5 47  1  0  0  0  0
  6  7  1  0  0  0  0
  7  8  2  0  0  0  0
  7 12  1  0  0  0  0
  8  9  1  0  0  0  0
  8 25  1  0  0  0  0
  9 10  1  0  0  0  0
 10 11  2  0  0  0  0
 10 21  1  0  0  0  0
 11 12  1  0  0  0  0
 11 13  1  0  0  0  0
 13 14  2  0  0  0  0
 13 19  1  0  0  0  0
 14 15  1  0  0  0  0
 15 16  2  0  0  0  0
 15 17  1  0  0  0  0
 17 18  2  0  0  0  0
 18 19  1  0  0  0  0
 19 20  2  0  0  0  0
 20 21  1  0  0  0  0
 20 22  1  0  0  0  0
 22 23  1  0  0  0  0
 22 24  1  0  0  0  0
 23 24  1  0  0  0  0
 25 26  2  0  0  0  0
 25 30  1  0  0  0  0
 26 27  1  0  0  0  0
 27 28  2  0  0  0  0
 28 29  1  0  0  0  0
 29 30  2  0  0  0  0
 29 40  1  0  0  0  0
 30 31  1  0  0  0  0
 31 32  2  0  0  0  0
 32 33  1  0  0  0  0
 32 39  1  0  0  0  0
 33 34  2  0  0  0  0
 33 35  1  0  0  0  0
 35 36  2  0  0  0  0
 37 35  1  1  0  0  0
 37 38  1  0  0  0  0
 37 42  1  0  0  0  0
 38 39  1  0  0  0  0
 39 40  2  0  0  0  0
 40 41  1  0  0  0  0
 42 43  1  6  0  0  0
 42 44  1  0  0  0  0
 42 45  1  0  0  0  0
 44 45  1  0  0  0  0
 45 46  2  0  0  0  0
 47 48  2  0  0  0  0
 47 49  1  0  0  0  0
 49 50  2  0  0  0  0
 49 51  1  0  0  0  0
 51 52  2  0  0  0  0
M  END
$$$$