
 OpenBabel10242017423D

 51 58  0  0  1  0  0  0  0  0999 V2000
   -1.9443   -0.3216    7.3539 O   0  0  0  0  0  0  0  0  0  0  0  0
   -2.1539   -0.7448    6.0672 C   0  0  0  0  0  0  0  0  0  0  0  0
   -1.4812   -0.2580    5.0163 C   0  0  0  0  0  0  0  0  0  0  0  0
   -0.5506    0.7529    5.1621 O   0  0  0  0  0  0  0  0  0  0  0  0
    0.5543    0.6912    4.2582 C   0  0  2  0  0  0  0  0  0  0  0  0
    1.5217    1.7118    4.5627 O   0  0  0  0  0  0  0  0  0  0  0  0
    2.1924    1.6251    5.7831 C   0  0  0  0  0  0  0  0  0  0  0  0
    2.9933    2.6252    6.2246 C   0  0  0  0  0  0  0  0  0  0  0  0
    3.7033    2.5570    7.4294 O   0  0  0  0  0  0  0  0  0  0  0  0
    3.6270    1.4062    8.2075 C   0  0  0  0  0  0  0  0  0  0  0  0
    2.8668    0.3671    7.8416 C   0  0  0  0  0  0  0  0  0  0  0  0
    2.0460    0.3657    6.6058 C   0  0  0  0  0  0  0  0  0  0  0  0
    2.8695   -0.8670    8.6738 C   0  0  0  0  0  0  0  0  0  0  0  0
    2.1745   -1.8907    8.2995 N   0  0  0  0  0  0  0  0  0  0  0  0
    2.2097   -3.0433    9.0533 C   0  0  0  0  0  0  0  0  0  0  0  0
    1.6211   -4.0278    8.6251 O   0  0  0  0  0  0  0  0  0  0  0  0
    2.8718   -3.1343   10.2573 N   0  0  0  0  0  0  0  0  0  0  0  0
    3.5795   -2.1314   10.6560 C   0  0  0  0  0  0  0  0  0  0  0  0
    3.6990   -0.8745    9.9012 C   0  0  0  0  0  0  0  0  0  0  0  0
    4.4295    0.2259   10.1700 C   0  0  0  0  0  0  0  0  0  0  0  0
    4.3825    1.3661    9.3593 N   0  0  0  0  0  0  0  0  0  0  0  0
    5.3187    0.2658   11.3732 C   0  0  0  0  0  0  0  0  0  0  0  0
    5.7516   -0.7070   11.9616 O   0  0  0  0  0  0  0  0  0  0  0  0
    5.6220    1.5356   11.7214 O   0  0  0  0  0  0  0  0  0  0  0  0
    3.2399    3.8752    5.4673 C   0  0  0  0  0  0  0  0  0  0  0  0
    4.3126    3.8205    4.6451 N   0  0  0  0  0  0  0  0  0  0  0  0
    4.5625    4.9219    3.9280 C   0  0  0  0  0  0  0  0  0  0  0  0
    3.8567    6.0596    3.9534 N   0  0  0  0  0  0  0  0  0  0  0  0
    2.8074    6.1036    4.7753 C   0  0  0  0  0  0  0  0  0  0  0  0
    2.4397    5.0262    5.5995 C   0  0  0  0  0  0  0  0  0  0  0  0
    1.3345    5.1787    6.4721 C   0  0  0  0  0  0  0  0  0  0  0  0
    0.5837    6.3580    6.4657 C   0  0  0  0  0  0  0  0  0  0  0  0
    0.9205    7.3983    5.6115 C   0  0  0  0  0  0  0  0  0  0  0  0
    2.0479    7.2693    4.7995 C   0  0  0  0  0  0  0  0  0  0  0  0
    0.2323    8.5740    5.5035 O   0  0  0  0  0  0  0  0  0  0  0  0
   -1.1188    8.5787    5.9784 C   0  0  2  0  0  0  0  0  0  0  0  0
   -1.3708    7.7695    7.2319 C   0  0  0  0  0  0  0  0  0  0  0  0
   -2.2414    8.0406    8.1573 N   0  0  0  0  0  0  0  0  0  0  0  0
   -0.5523    6.5203    7.3707 C   0  0  0  0  0  0  0  0  0  0  0  0
   -0.8673    5.6472    8.2776 N   0  0  0  0  0  0  0  0  0  0  0  0
   -2.0479    8.1771    4.8649 C   0  0  1  0  0  0  0  0  0  0  0  0
   -1.8482    6.8773    4.2679 O   0  0  0  0  0  0  0  0  0  0  0  0
   -3.4181    8.5620    5.0348 O   0  0  0  0  0  0  0  0  0  0  0  0
   -2.7290    9.1831    4.0693 C   0  0  0  0  0  0  0  0  0  0  0  0
   -2.4990   10.3653    3.8908 O   0  0  0  0  0  0  0  0  0  0  0  0
    0.0398    0.8413    2.8348 C   0  0  0  0  0  0  0  0  0  0  0  0
    0.4813    1.5885    1.9746 O   0  0  0  0  0  0  0  0  0  0  0  0
   -1.0958   -0.1092    2.5324 C   0  0  0  0  0  0  0  0  0  0  0  0
   -1.4155   -0.3389    1.3760 O   0  0  0  0  0  0  0  0  0  0  0  0
   -1.8175   -0.7980    3.6718 C   0  0  0  0  0  0  0  0  0  0  0  0
   -2.5894   -1.7228    3.4783 O   0  0  0  0  0  0  0  0  0  0  0  0
  1  2  1  0  0  0  0
  2  3  2  0  0  0  0
  3  4  1  0  0  0  0
  3 50  1  0  0  0  0
  4  5  1  0  0  0  0
  5  6  1  1  0  0  0
  5 46  1  0  0  0  0
  6  7  1  0  0  0  0
  7  8  2  0  0  0  0
  7 12  1  0  0  0  0
  8  9  1  0  0  0  0
  8 25  1  0  0  0  0
  9 10  1  0  0  0  0
 10 11  2  0  0  0  0
 10 21  1  0  0  0  0
 11 12  1  0  0  0  0
 11 13  1  0  0  0  0
 13 14  2  0  0  0  0
 13 19  1  0  0  0  0
 14 15  1  0  0  0  0
 15 16  2  0  0  0  0
 15 17  1  0  0  0  0
 17 18  2  0  0  0  0
 18 19  1  0  0  0  0
 19 20  2  0  0  0  0
 20 21  1  0  0  0  0
 20 22  1  0  0  0  0
 22 23  2  0  0  0  0
 22 24  1  0  0  0  0
 25 26  2  0  0  0  0
 25 30  1  0  0  0  0
 26 27  1  0  0  0  0
 27 28  2  0  0  0  0
 28 29  1  0  0  0  0
 29 30  2  0  0  0  0
 29 34  1  0  0  0  0
 30 31  1  0  0  0  0
 31 32  2  0  0  0  0
 32 33  1  0  0  0  0
 32 39  1  0  0  0  0
 33 34  2  0  0  0  0
 33 35  1  0  0  0  0
 36 35  1  6  0  0  0
 36 37  1  0  0  0  0
 36 41  1  0  0  0  0
 37 38  2  0  0  0  0
 37 39  1  0  0  0  0
 39 40  2  0  0  0  0
 41 42  1  6  0  0  0
 41 43  1  0  0  0  0
 41 44  1  0  0  0  0
 43 44  1  0  0  0  0
 44 45  2  0  0  0  0
 46 47  2  0  0  0  0
 46 48  1  0  0  0  0
 48 49  2  0  0  0  0
 48 50  1  0  0  0  0
 50 51  2  0  0  0  0
M  END
$$$$