
 OpenBabel11222002023D

 54 62  0  0  1  0  0  0  0  0999 V2000
   -1.5869   -1.3887   -5.0422 O   0  0  0  0  0  0  0  0  0  0  0  0
   -1.2440   -0.5391   -4.0204 C   0  0  0  0  0  0  0  0  0  0  0  0
   -0.3932   -0.8886   -3.0484 C   0  0  0  0  0  0  0  0  0  0  0  0
    0.1497   -2.1632   -3.0203 O   0  0  0  0  0  0  0  0  0  0  0  0
    1.4819   -2.2256   -2.5132 C   0  0  2  0  0  0  0  0  0  0  0  0
    2.0157   -3.5575   -2.6227 O   0  0  0  0  0  0  0  0  0  0  0  0
    2.0759   -4.0654   -3.9172 C   0  0  0  0  0  0  0  0  0  0  0  0
    1.9709   -5.3897   -4.1507 C   0  0  0  0  0  0  0  0  0  0  0  0
    2.0218   -5.9502   -5.4219 O   0  0  0  0  0  0  0  0  0  0  0  0
    2.3133   -5.1323   -6.5057 C   0  0  0  0  0  0  0  0  0  0  0  0
    2.5229   -3.8125   -6.3667 C   0  0  0  0  0  0  0  0  0  0  0  0
    2.3469   -3.1154   -5.0605 C   0  0  0  0  0  0  0  0  0  0  0  0
    2.9216   -2.9612   -7.5490 C   0  0  3  0  0  0  0  0  0  0  0  0
    4.2093   -2.4166   -7.2499 O   0  0  0  0  0  0  0  0  0  0  0  0
    4.9992   -1.8967   -8.2220 C   0  0  0  0  0  0  0  0  0  0  0  0
    6.0412   -1.3117   -7.9353 O   0  0  0  0  0  0  0  0  0  0  0  0
    4.6135   -2.0653   -9.5062 O   0  0  0  0  0  0  0  0  0  0  0  0
    3.4624   -2.8064   -9.9018 C   0  0  3  0  0  0  0  0  0  0  0  0
    3.0122   -3.7108   -8.8261 C   0  0  0  0  0  0  0  0  0  0  0  0
    2.7287   -5.0303   -8.9086 C   0  0  0  0  0  0  0  0  0  0  0  0
    2.3944   -5.7132   -7.7453 N   0  0  0  0  0  0  0  0  0  0  0  0
    2.7536   -5.8182  -10.1616 C   0  0  0  0  0  0  0  0  0  0  0  0
    3.9500   -6.4615  -10.6229 O   0  0  0  0  0  0  0  0  0  0  0  0
    2.8401   -7.2538  -10.1561 O   0  0  0  0  0  0  0  0  0  0  0  0
    2.4059   -1.9054  -10.1828 O   0  0  0  0  0  0  0  0  0  0  0  0
    1.8600   -6.3786   -3.0687 C   0  0  0  0  0  0  0  0  0  0  0  0
    3.0457   -6.8911   -2.5499 C   0  0  0  0  0  0  0  0  0  0  0  0
    3.0206   -7.7879   -1.5608 N   0  3  0  0  0  0  0  0  0  0  0  0
    4.1824   -8.2759   -1.0859 F   0  0  0  0  0  0  0  0  0  0  0  0
    1.8952   -8.2254   -1.0299 N   0  0  0  0  0  0  0  0  0  0  0  0
    0.7247   -7.7668   -1.4892 C   0  0  0  0  0  0  0  0  0  0  0  0
    0.6399   -6.8283   -2.5309 C   0  0  0  0  0  0  0  0  0  0  0  0
   -0.6416   -6.4080   -2.9793 C   0  0  0  0  0  0  0  0  0  0  0  0
   -1.8151   -6.9150   -2.4009 C   0  0  0  0  0  0  0  0  0  0  0  0
   -3.1562   -6.5661   -2.9015 C   0  0  0  0  0  0  0  0  0  0  0  0
   -3.4302   -5.8278   -3.9301 N   0  0  0  0  0  0  0  0  0  0  0  0
   -4.3244   -7.1859   -2.1813 C   0  0  0  0  0  0  0  0  0  0  0  0
   -5.4843   -7.2405   -2.7609 N   0  0  0  0  0  0  0  0  0  0  0  0
   -4.0405   -7.7236   -0.8040 C   0  0  1  0  0  0  0  0  0  0  0  0
   -2.7823   -8.4043   -0.7158 O   0  0  0  0  0  0  0  0  0  0  0  0
   -1.7196   -7.8272   -1.3548 C   0  0  0  0  0  0  0  0  0  0  0  0
   -0.4554   -8.2392   -0.9260 C   0  0  0  0  0  0  0  0  0  0  0  0
   -0.3709   -9.1356    0.0719 F   0  0  0  0  0  0  0  0  0  0  0  0
   -4.1205   -6.6511    0.2495 C   0  0  1  0  0  0  0  0  0  0  0  0
   -3.1977   -5.5458    0.1384 O   0  0  0  0  0  0  0  0  0  0  0  0
   -5.4413   -6.3233    0.6864 O   0  0  0  0  0  0  0  0  0  0  0  0
   -4.6021   -6.9593    1.6527 C   0  0  3  0  0  0  0  0  0  0  0  0
   -4.1309   -6.0726    2.6828 O   0  0  0  0  0  0  0  0  0  0  0  0
    1.4428   -1.7848   -1.0661 C   0  0  0  0  0  0  0  0  0  0  0  0
    1.7794   -2.4447   -0.0970 O   0  0  0  0  0  0  0  0  0  0  0  0
    0.9148   -0.3768   -0.9457 C   0  0  0  0  0  0  0  0  0  0  0  0
    1.3491    0.3627   -0.0799 O   0  0  0  0  0  0  0  0  0  0  0  0
   -0.0761    0.1162   -1.9883 C   0  0  0  0  0  0  0  0  0  0  0  0
   -0.5292    1.2464   -1.9628 O   0  0  0  0  0  0  0  0  0  0  0  0
  1  2  1  0  0  0  0
  2  3  2  0  0  0  0
  3  4  1  0  0  0  0
  3 53  1  0  0  0  0
  4  5  1  0  0  0  0
  5  6  1  1  0  0  0
  5 49  1  0  0  0  0
  6  7  1  0  0  0  0
  7  8  2  0  0  0  0
  7 12  1  0  0  0  0
  8  9  1  0  0  0  0
  8 26  1  0  0  0  0
  9 10  1  0  0  0  0
 10 11  2  0  0  0  0
 10 21  1  0  0  0  0
 11 12  1  0  0  0  0
 11 13  1  0  0  0  0
 13 14  1  0  0  0  0
 13 19  1  0  0  0  0
 14 15  1  0  0  0  0
 15 16  2  0  0  0  0
 15 17  1  0  0  0  0
 17 18  1  0  0  0  0
 18 19  1  0  0  0  0
 18 25  1  0  0  0  0
 19 20  2  0  0  0  0
 20 21  1  0  0  0  0
 20 22  1  0  0  0  0
 22 23  1  0  0  0  0
 22 24  1  0  0  0  0
 23 24  1  0  0  0  0
 26 27  2  0  0  0  0
 26 32  1  0  0  0  0
 27 28  1  0  0  0  0
 28 29  1  0  0  0  0
 28 30  2  0  0  0  0
 30 31  1  0  0  0  0
 31 32  2  0  0  0  0
 31 42  1  0  0  0  0
 32 33  1  0  0  0  0
 33 34  2  0  0  0  0
 34 35  1  0  0  0  0
 34 41  1  0  0  0  0
 35 36  2  0  0  0  0
 35 37  1  0  0  0  0
 37 38  2  0  0  0  0
 39 37  1  6  0  0  0
 39 40  1  0  0  0  0
 39 44  1  0  0  0  0
 40 41  1  0  0  0  0
 41 42  2  0  0  0  0
 42 43  1  0  0  0  0
 44 45  1  6  0  0  0
 44 46  1  0  0  0  0
 44 47  1  0  0  0  0
 46 47  1  0  0  0  0
 47 48  1  0  0  0  0
 49 50  2  0  0  0  0
 49 51  1  0  0  0  0
 51 52  2  0  0  0  0
 51 53  1  0  0  0  0
 53 54  2  0  0  0  0
M  CHG  1  28   1
M  END
$$$$