
 OpenBabel11222017413D

 54 62  0  0  1  0  0  0  0  0999 V2000
   -1.7589    5.3619   -1.7554 O   0  0  0  0  0  0  0  0  0  0  0  0
   -1.5430    4.2610   -0.9637 C   0  0  0  0  0  0  0  0  0  0  0  0
   -0.4502    3.4907   -1.0402 C   0  0  0  0  0  0  0  0  0  0  0  0
    0.5529    3.7131   -1.9686 O   0  0  0  0  0  0  0  0  0  0  0  0
    1.8563    3.6331   -1.3915 C   0  0  2  0  0  0  0  0  0  0  0  0
    2.8821    4.0040   -2.3586 O   0  0  0  0  0  0  0  0  0  0  0  0
    2.9144    5.3226   -2.8132 C   0  0  0  0  0  0  0  0  0  0  0  0
    3.8770    5.7893   -3.6522 C   0  0  0  0  0  0  0  0  0  0  0  0
    3.8780    7.1360   -4.0787 O   0  0  0  0  0  0  0  0  0  0  0  0
    2.8622    8.0223   -3.7017 C   0  0  0  0  0  0  0  0  0  0  0  0
    1.8870    7.6157   -2.8795 C   0  0  0  0  0  0  0  0  0  0  0  0
    1.8176    6.2361   -2.3429 C   0  0  0  0  0  0  0  0  0  0  0  0
    0.7737    8.5055   -2.4321 C   0  0  3  0  0  0  0  0  0  0  0  0
    0.7872    8.5237   -1.0162 O   0  0  0  0  0  0  0  0  0  0  0  0
   -0.2772    9.1645   -0.4649 C   0  0  0  0  0  0  0  0  0  0  0  0
   -0.6724    8.9085    0.6585 O   0  0  0  0  0  0  0  0  0  0  0  0
   -0.8684   10.0649   -1.2898 O   0  0  0  0  0  0  0  0  0  0  0  0
   -0.0420   10.7777   -2.2061 C   0  0  3  0  0  0  0  0  0  0  0  0
    0.9876    9.9040   -2.8459 C   0  0  0  0  0  0  0  0  0  0  0  0
    1.9978   10.2761   -3.6676 C   0  0  0  0  0  0  0  0  0  0  0  0
    2.8906    9.3250   -4.1675 O   0  3  0  0  0  0  0  0  0  0  0  0
    2.2224   11.6763   -4.1033 C   0  0  0  0  0  0  0  0  0  0  0  0
    3.3304   12.0022   -4.9607 O   0  0  0  0  0  0  0  0  0  0  0  0
    1.9800   12.0745   -5.4574 O   0  0  0  0  0  0  0  0  0  0  0  0
   -0.8455   11.2406   -3.2693 O   0  0  0  0  0  0  0  0  0  0  0  0
    4.9925    4.9402   -4.2215 C   0  0  0  0  0  0  0  0  0  0  0  0
    5.5110    3.8876   -3.4619 C   0  0  0  0  0  0  0  0  0  0  0  0
    6.4204    3.0436   -3.9616 N   0  3  0  0  0  0  0  0  0  0  0  0
    6.9016    2.0601   -3.1760 F   0  0  0  0  0  0  0  0  0  0  0  0
    6.8639    3.1276   -5.1998 N   0  0  0  0  0  0  0  0  0  0  0  0
    6.4697    4.1372   -5.9772 C   0  0  0  0  0  0  0  0  0  0  0  0
    5.5675    5.1189   -5.5143 C   0  0  0  0  0  0  0  0  0  0  0  0
    5.3222    6.2110   -6.3806 C   0  0  0  0  0  0  0  0  0  0  0  0
    5.8968    6.3082   -7.6528 C   0  0  0  0  0  0  0  0  0  0  0  0
    5.6882    7.5251   -8.4425 C   0  0  0  0  0  0  0  0  0  0  0  0
    5.1244    8.4882   -7.9407 O   0  0  0  0  0  0  0  0  0  0  0  0
    6.2451    7.5216   -9.8491 C   0  0  0  0  0  0  0  0  0  0  0  0
    6.3450    8.5629  -10.4777 O   0  0  0  0  0  0  0  0  0  0  0  0
    6.5780    6.1393  -10.3739 C   0  0  1  0  0  0  0  0  0  0  0  0
    7.1932    5.2664   -9.4066 O   0  0  0  0  0  0  0  0  0  0  0  0
    6.6758    5.2860   -8.1443 C   0  0  0  0  0  0  0  0  0  0  0  0
    6.9700    4.2257   -7.2850 C   0  0  0  0  0  0  0  0  0  0  0  0
    7.7721    3.2449   -7.7296 F   0  0  0  0  0  0  0  0  0  0  0  0
    5.3509    5.4923  -10.9640 C   0  0  1  0  0  0  0  0  0  0  0  0
    4.1477    5.2203  -10.1013 N   0  0  0  0  0  0  0  0  0  0  0  0
    5.0164    5.9466  -12.2720 O   0  0  0  0  0  0  0  0  0  0  0  0
    5.4230    4.6622  -12.1894 C   0  0  0  0  0  0  0  0  0  0  0  0
    4.8347    3.6379  -12.4298 O   0  0  0  0  0  0  0  0  0  0  0  0
    2.1517    2.2322   -0.8731 C   0  0  0  0  0  0  0  0  0  0  0  0
    3.2763    1.7642   -0.7583 O   0  0  0  0  0  0  0  0  0  0  0  0
    0.9006    1.4998   -0.4303 C   0  0  0  0  0  0  0  0  0  0  0  0
    0.8544    0.2837   -0.4302 O   0  0  0  0  0  0  0  0  0  0  0  0
   -0.3189    2.3399   -0.1068 C   0  0  0  0  0  0  0  0  0  0  0  0
   -1.0258    2.1368    0.8599 O   0  0  0  0  0  0  0  0  0  0  0  0
  1  2  1  0  0  0  0
  2  3  2  0  0  0  0
  3  4  1  0  0  0  0
  3 53  1  0  0  0  0
  4  5  1  0  0  0  0
  5  6  1  6  0  0  0
  5 49  1  0  0  0  0
  6  7  1  0  0  0  0
  7  8  2  0  0  0  0
  7 12  1  0  0  0  0
  8  9  1  0  0  0  0
  8 26  1  0  0  0  0
  9 10  1  0  0  0  0
 10 11  2  0  0  0  0
 10 21  1  0  0  0  0
 11 12  1  0  0  0  0
 11 13  1  0  0  0  0
 13 14  1  0  0  0  0
 13 19  1  0  0  0  0
 14 15  1  0  0  0  0
 15 16  2  0  0  0  0
 15 17  1  0  0  0  0
 17 18  1  0  0  0  0
 18 19  1  0  0  0  0
 18 25  1  0  0  0  0
 19 20  2  0  0  0  0
 20 21  1  0  0  0  0
 20 22  1  0  0  0  0
 22 23  1  0  0  0  0
 22 24  1  0  0  0  0
 23 24  1  0  0  0  0
 26 27  2  0  0  0  0
 26 32  1  0  0  0  0
 27 28  1  0  0  0  0
 28 29  1  0  0  0  0
 28 30  2  0  0  0  0
 30 31  1  0  0  0  0
 31 32  2  0  0  0  0
 31 42  1  0  0  0  0
 32 33  1  0  0  0  0
 33 34  2  0  0  0  0
 34 35  1  0  0  0  0
 34 41  1  0  0  0  0
 35 36  2  0  0  0  0
 35 37  1  0  0  0  0
 37 38  2  0  0  0  0
 39 37  1  1  0  0  0
 39 40  1  0  0  0  0
 39 44  1  0  0  0  0
 40 41  1  0  0  0  0
 41 42  2  0  0  0  0
 42 43  1  0  0  0  0
 44 45  1  1  0  0  0
 44 46  1  0  0  0  0
 44 47  1  0  0  0  0
 46 47  1  0  0  0  0
 47 48  2  0  0  0  0
 49 50  2  0  0  0  0
 49 51  1  0  0  0  0
 51 52  2  0  0  0  0
 51 53  1  0  0  0  0
 53 54  2  0  0  0  0
M  CHG  2  21   1  28   1
M  END
$$$$