
 OpenBabel11262000303D

 54 62  0  0  1  0  0  0  0  0999 V2000
    5.1611    5.0844   -7.2908 O   0  0  0  0  0  0  0  0  0  0  0  0
    5.4313    3.7403   -7.2578 C   0  0  0  0  0  0  0  0  0  0  0  0
    5.2974    2.9940   -6.1544 C   0  0  0  0  0  0  0  0  0  0  0  0
    4.9715    3.5597   -4.9466 O   0  0  0  0  0  0  0  0  0  0  0  0
    3.9449    2.8823   -4.2223 C   0  0  2  0  0  0  0  0  0  0  0  0
    3.5549    3.6502   -3.0724 O   0  0  0  0  0  0  0  0  0  0  0  0
    2.9973    4.9150   -3.2445 C   0  0  0  0  0  0  0  0  0  0  0  0
    2.4432    5.6008   -2.2137 C   0  0  0  0  0  0  0  0  0  0  0  0
    2.1451    6.9799   -2.3300 O   0  0  0  0  0  0  0  0  0  0  0  0
    2.4311    7.6636   -3.4998 C   0  0  0  0  0  0  0  0  0  0  0  0
    2.7758    6.9980   -4.6431 C   0  0  0  0  0  0  0  0  0  0  0  0
    3.0911    5.5517   -4.6041 C   0  0  0  0  0  0  0  0  0  0  0  0
    2.9165    7.7365   -5.8166 C   0  0  0  0  0  0  0  0  0  0  0  0
    3.1464    7.0242   -6.9871 O   0  0  0  0  0  0  0  0  0  0  0  0
    3.2730    7.6805   -8.1826 C   0  0  0  0  0  0  0  0  0  0  0  0
    3.4326    6.9871   -9.2538 N   0  0  0  0  0  0  0  0  0  0  0  0
    3.2422    9.0237   -8.2146 O   0  0  0  0  0  0  0  0  0  0  0  0
    3.0333    9.7779   -7.1132 C   0  0  0  0  0  0  0  0  0  0  0  0
    3.0034   10.9987   -7.1874 O   0  0  0  0  0  0  0  0  0  0  0  0
    2.8180    9.1036   -5.8296 C   0  0  0  0  0  0  0  0  0  0  0  0
    2.5302    9.7481   -4.6208 C   0  0  0  0  0  0  0  0  0  0  0  0
    2.3008    9.0086   -3.4761 N   0  0  0  0  0  0  0  0  0  0  0  0
    2.4270   11.2547   -4.5050 C   0  0  0  0  0  0  0  0  0  0  0  0
    2.7839   11.8530   -3.2475 O   0  0  0  0  0  0  0  0  0  0  0  0
    3.6505   11.9992   -4.3882 O   0  0  0  0  0  0  0  0  0  0  0  0
    2.1106    5.0538   -0.8381 C   0  0  0  0  0  0  0  0  0  0  0  0
    2.2002    5.9592    0.2316 C   0  0  0  0  0  0  0  0  0  0  0  0
    1.8264    5.5590    1.4974 C   0  0  0  0  0  0  0  0  0  0  0  0
    1.9176    6.4389    2.5045 F   0  0  0  0  0  0  0  0  0  0  0  0
    1.3696    4.3357    1.7950 N   0  0  0  0  0  0  0  0  0  0  0  0
    1.2796    3.4304    0.8130 C   0  0  0  0  0  0  0  0  0  0  0  0
    1.6270    3.7270   -0.5339 C   0  0  0  0  0  0  0  0  0  0  0  0
    1.4521    2.6689   -1.4618 C   0  0  0  0  0  0  0  0  0  0  0  0
    1.0716    1.3762   -1.0873 C   0  0  0  0  0  0  0  0  0  0  0  0
    1.0887    0.2937   -2.0810 C   0  0  0  0  0  0  0  0  0  0  0  0
    1.4961    0.4757   -3.2203 O   0  0  0  0  0  0  0  0  0  0  0  0
    0.5739   -1.0511   -1.6150 C   0  0  0  0  0  0  0  0  0  0  0  0
    0.7639   -2.0643   -2.2722 O   0  0  0  0  0  0  0  0  0  0  0  0
   -0.2619   -0.9855   -0.3572 C   0  0  1  0  0  0  0  0  0  0  0  0
    0.2260   -0.0881    0.6468 O   0  0  0  0  0  0  0  0  0  0  0  0
    0.6975    1.1175    0.2114 C   0  0  0  0  0  0  0  0  0  0  0  0
    0.8087    2.1512    1.1411 C   0  0  0  0  0  0  0  0  0  0  0  0
    0.4384    1.8968    2.4096 F   0  0  0  0  0  0  0  0  0  0  0  0
   -1.6930   -0.6819   -0.6886 C   0  0  1  0  0  0  0  0  0  0  0  0
   -1.9540    0.5398   -1.4158 O   0  0  0  0  0  0  0  0  0  0  0  0
   -2.4782   -1.9000   -1.2307 O   0  0  0  0  0  0  0  0  0  0  0  0
   -2.7808   -1.3328   -0.0877 C   0  0  0  0  0  0  0  0  0  0  0  0
   -3.6152   -1.4262    0.8404 N   0  0  0  0  0  0  0  0  0  0  0  0
    4.5421    1.5452   -3.8157 C   0  0  0  0  0  0  0  0  0  0  0  0
    4.6802    1.1226   -2.6775 O   0  0  0  0  0  0  0  0  0  0  0  0
    5.0430    0.7707   -5.0162 C   0  0  0  0  0  0  0  0  0  0  0  0
    4.9587   -0.4459   -5.0489 O   0  0  0  0  0  0  0  0  0  0  0  0
    5.5773    1.5378   -6.2166 C   0  0  0  0  0  0  0  0  0  0  0  0
    6.1568    1.0001   -7.1438 O   0  0  0  0  0  0  0  0  0  0  0  0
  1  2  1  0  0  0  0
  2  3  2  0  0  0  0
  3  4  1  0  0  0  0
  3 53  1  0  0  0  0
  4  5  1  0  0  0  0
  5  6  1  1  0  0  0
  5 49  1  0  0  0  0
  6  7  1  0  0  0  0
  7  8  2  0  0  0  0
  7 12  1  0  0  0  0
  8  9  1  0  0  0  0
  8 26  1  0  0  0  0
  9 10  1  0  0  0  0
 10 11  2  0  0  0  0
 10 22  1  0  0  0  0
 11 12  1  0  0  0  0
 11 13  1  0  0  0  0
 13 14  1  0  0  0  0
 13 20  2  0  0  0  0
 14 15  1  0  0  0  0
 15 16  2  0  0  0  0
 15 17  1  0  0  0  0
 17 18  1  0  0  0  0
 18 19  2  0  0  0  0
 18 20  1  0  0  0  0
 20 21  1  0  0  0  0
 21 22  2  0  0  0  0
 21 23  1  0  0  0  0
 23 24  1  0  0  0  0
 23 25  1  0  0  0  0
 24 25  1  0  0  0  0
 26 27  2  0  0  0  0
 26 32  1  0  0  0  0
 27 28  1  0  0  0  0
 28 29  1  0  0  0  0
 28 30  2  0  0  0  0
 30 31  1  0  0  0  0
 31 32  2  0  0  0  0
 31 42  1  0  0  0  0
 32 33  1  0  0  0  0
 33 34  2  0  0  0  0
 34 35  1  0  0  0  0
 34 41  1  0  0  0  0
 35 36  2  0  0  0  0
 35 37  1  0  0  0  0
 37 38  2  0  0  0  0
 39 37  1  6  0  0  0
 39 40  1  0  0  0  0
 39 44  1  0  0  0  0
 40 41  1  0  0  0  0
 41 42  2  0  0  0  0
 42 43  1  0  0  0  0
 44 45  1  6  0  0  0
 44 46  1  0  0  0  0
 44 47  1  0  0  0  0
 46 47  1  0  0  0  0
 47 48  2  0  0  0  0
 49 50  2  0  0  0  0
 49 51  1  0  0  0  0
 51 52  2  0  0  0  0
 51 53  1  0  0  0  0
 53 54  2  0  0  0  0
M  END
$$$$