
 OpenBabel11212016013D

 54 62  0  0  1  0  0  0  0  0999 V2000
    6.7802    2.4838    4.9665 O   0  0  0  0  0  0  0  0  0  0  0  0
    6.1070    3.1243    3.9570 C   0  0  0  0  0  0  0  0  0  0  0  0
    4.9237    2.7026    3.4960 C   0  0  0  0  0  0  0  0  0  0  0  0
    4.3241    1.5631    4.0139 O   0  0  0  0  0  0  0  0  0  0  0  0
    2.9009    1.6234    3.9975 C   0  0  2  0  0  0  0  0  0  0  0  0
    2.3258    0.4432    4.5950 O   0  0  0  0  0  0  0  0  0  0  0  0
    2.6425    0.1624    5.9130 C   0  0  0  0  0  0  0  0  0  0  0  0
    2.7220   -1.1172    6.3265 C   0  0  0  0  0  0  0  0  0  0  0  0
    3.0081   -1.4800    7.6386 O   0  0  0  0  0  0  0  0  0  0  0  0
    3.2450   -0.4855    8.5890 C   0  0  0  0  0  0  0  0  0  0  0  0
    3.1576    0.8232    8.2768 C   0  0  0  0  0  0  0  0  0  0  0  0
    2.8261    1.2987    6.8873 C   0  0  0  0  0  0  0  0  0  0  0  0
    3.4293    1.9003    9.2953 C   0  0  3  0  0  0  0  0  0  0  0  0
    2.2436    2.6565    9.4675 O   0  0  0  0  0  0  0  0  0  0  0  0
    2.3253    3.6919   10.3529 C   0  0  0  0  0  0  0  0  0  0  0  0
    1.4916    4.5799   10.3827 O   0  0  0  0  0  0  0  0  0  0  0  0
    3.4235    3.6753   11.1498 O   0  0  0  0  0  0  0  0  0  0  0  0
    3.9111    2.4283   11.6254 C   0  0  3  0  0  0  0  0  0  0  0  0
    3.7365    1.3367   10.6298 C   0  0  0  0  0  0  0  0  0  0  0  0
    3.8051    0.0110   10.8752 C   0  0  0  0  0  0  0  0  0  0  0  0
    3.5744   -0.8992    9.8591 O   0  3  0  0  0  0  0  0  0  0  0  0
    4.0907   -0.5720   12.2061 C   0  0  0  0  0  0  0  0  0  0  0  0
    3.0226   -0.9776   13.0711 O   0  0  0  0  0  0  0  0  0  0  0  0
    3.8554   -1.9722   12.4454 O   0  0  0  0  0  0  0  0  0  0  0  0
    5.3107    2.5219   11.8027 O   0  0  0  0  0  0  0  0  0  0  0  0
    2.5529   -2.2497    5.3925 C   0  0  0  0  0  0  0  0  0  0  0  0
    1.2710   -2.7043    5.0975 C   0  0  0  0  0  0  0  0  0  0  0  0
    1.0904   -3.7241    4.2499 N   0  3  0  0  0  0  0  0  0  0  0  0
   -0.1596   -4.1691    4.0160 F   0  0  0  0  0  0  0  0  0  0  0  0
    2.0959   -4.3318    3.6441 N   0  0  0  0  0  0  0  0  0  0  0  0
    3.3518   -3.9225    3.8612 C   0  0  0  0  0  0  0  0  0  0  0  0
    3.6412   -2.8712    4.7493 C   0  0  0  0  0  0  0  0  0  0  0  0
    4.9914   -2.5048    4.9557 C   0  0  0  0  0  0  0  0  0  0  0  0
    6.0310   -3.1816    4.3058 C   0  0  0  0  0  0  0  0  0  0  0  0
    7.4250   -2.8803    4.6495 C   0  0  0  0  0  0  0  0  0  0  0  0
    7.6906   -2.0595    5.5126 O   0  0  0  0  0  0  0  0  0  0  0  0
    8.4788   -3.7101    3.9526 C   0  0  0  0  0  0  0  0  0  0  0  0
    9.5737   -3.8833    4.4630 O   0  0  0  0  0  0  0  0  0  0  0  0
    8.0240   -4.2866    2.6316 C   0  0  1  0  0  0  0  0  0  0  0  0
    6.7035   -4.8585    2.6811 O   0  0  0  0  0  0  0  0  0  0  0  0
    5.7528   -4.1826    3.3932 C   0  0  0  0  0  0  0  0  0  0  0  0
    4.4160   -4.5470    3.2012 C   0  0  0  0  0  0  0  0  0  0  0  0
    4.1378   -5.5501    2.3532 F   0  0  0  0  0  0  0  0  0  0  0  0
    8.1162   -3.2628    1.5466 C   0  0  1  0  0  0  0  0  0  0  0  0
    7.3405   -2.0479    1.7321 O   0  0  0  0  0  0  0  0  0  0  0  0
    9.4204   -3.0805    1.0087 O   0  0  0  0  0  0  0  0  0  0  0  0
    8.4889   -3.5665    0.1610 C   0  0  0  0  0  0  0  0  0  0  0  0
    8.0472   -3.0851   -0.8579 O   0  0  0  0  0  0  0  0  0  0  0  0
    2.4109    1.6781    2.5623 C   0  0  0  0  0  0  0  0  0  0  0  0
    1.5628    0.9406    2.0807 O   0  0  0  0  0  0  0  0  0  0  0  0
    3.1021    2.7574    1.7618 C   0  0  0  0  0  0  0  0  0  0  0  0
    2.7278    3.0256    0.6344 O   0  0  0  0  0  0  0  0  0  0  0  0
    4.2792    3.4769    2.3939 C   0  0  0  0  0  0  0  0  0  0  0  0
    4.6085    4.6009    2.0635 O   0  0  0  0  0  0  0  0  0  0  0  0
  1  2  1  0  0  0  0
  2  3  2  0  0  0  0
  3  4  1  0  0  0  0
  3 53  1  0  0  0  0
  4  5  1  0  0  0  0
  5  6  1  6  0  0  0
  5 49  1  0  0  0  0
  6  7  1  0  0  0  0
  7  8  2  0  0  0  0
  7 12  1  0  0  0  0
  8  9  1  0  0  0  0
  8 26  1  0  0  0  0
  9 10  1  0  0  0  0
 10 11  2  0  0  0  0
 10 21  1  0  0  0  0
 11 12  1  0  0  0  0
 11 13  1  0  0  0  0
 13 14  1  0  0  0  0
 13 19  1  0  0  0  0
 14 15  1  0  0  0  0
 15 16  2  0  0  0  0
 15 17  1  0  0  0  0
 17 18  1  0  0  0  0
 18 19  1  0  0  0  0
 18 25  1  0  0  0  0
 19 20  2  0  0  0  0
 20 21  1  0  0  0  0
 20 22  1  0  0  0  0
 22 23  1  0  0  0  0
 22 24  1  0  0  0  0
 23 24  1  0  0  0  0
 26 27  2  0  0  0  0
 26 32  1  0  0  0  0
 27 28  1  0  0  0  0
 28 29  1  0  0  0  0
 28 30  2  0  0  0  0
 30 31  1  0  0  0  0
 31 32  2  0  0  0  0
 31 42  1  0  0  0  0
 32 33  1  0  0  0  0
 33 34  2  0  0  0  0
 34 35  1  0  0  0  0
 34 41  1  0  0  0  0
 35 36  2  0  0  0  0
 35 37  1  0  0  0  0
 37 38  2  0  0  0  0
 39 37  1  1  0  0  0
 39 40  1  0  0  0  0
 39 44  1  0  0  0  0
 40 41  1  0  0  0  0
 41 42  2  0  0  0  0
 42 43  1  0  0  0  0
 44 45  1  1  0  0  0
 44 46  1  0  0  0  0
 44 47  1  0  0  0  0
 46 47  1  0  0  0  0
 47 48  2  0  0  0  0
 49 50  2  0  0  0  0
 49 51  1  0  0  0  0
 51 52  2  0  0  0  0
 51 53  1  0  0  0  0
 53 54  2  0  0  0  0
M  CHG  2  21   1  28   1
M  END
$$$$