
 OpenBabel11272012533D

 54 62  0  0  1  0  0  0  0  0999 V2000
    2.6063    7.0245   -3.9057 F   0  0  0  0  0  0  0  0  0  0  0  0
    2.4335    5.7469   -4.2944 C   0  0  0  0  0  0  0  0  0  0  0  0
    2.3703    4.7530   -3.4069 C   0  0  0  0  0  0  0  0  0  0  0  0
    2.5615    4.9762   -2.0604 O   0  0  0  0  0  0  0  0  0  0  0  0
    1.6085    4.3497   -1.2103 C   0  0  2  0  0  0  0  0  0  0  0  0
    2.0341    4.4905    0.1665 O   0  0  0  0  0  0  0  0  0  0  0  0
    2.0601    5.7790    0.6997 C   0  0  0  0  0  0  0  0  0  0  0  0
    2.9139    6.1427    1.6867 C   0  0  0  0  0  0  0  0  0  0  0  0
    2.9161    7.4204    2.2582 O   0  0  0  0  0  0  0  0  0  0  0  0
    1.9765    8.3624    1.8627 C   0  0  0  0  0  0  0  0  0  0  0  0
    1.0617    8.0796    0.9209 C   0  0  0  0  0  0  0  0  0  0  0  0
    1.0174    6.7562    0.2213 C   0  0  0  0  0  0  0  0  0  0  0  0
    0.0391    9.0793    0.4815 C   0  0  3  0  0  0  0  0  0  0  0  0
   -1.2301    8.6122    0.8873 O   0  0  0  0  0  0  0  0  0  0  0  0
   -2.3060    9.3991    0.5927 C   0  0  0  0  0  0  0  0  0  0  0  0
   -3.4401    8.9776    0.6413 O   0  0  0  0  0  0  0  0  0  0  0  0
   -2.0164   10.6777    0.2354 O   0  0  0  0  0  0  0  0  0  0  0  0
   -0.8016   11.3291    0.6010 C   0  0  3  0  0  0  0  0  0  0  0  0
    0.2194   10.3925    1.1394 C   0  0  0  0  0  0  0  0  0  0  0  0
    1.1732   10.6293    2.0688 C   0  0  0  0  0  0  0  0  0  0  0  0
    2.0221    9.5976    2.4667 O   0  3  0  0  0  0  0  0  0  0  0  0
    1.3943   11.9476    2.6974 C   0  0  3  0  0  0  0  0  0  0  0  0
    2.4413   12.0360    3.6620 N   0  0  0  0  0  0  0  0  0  0  0  0
    1.2795   12.0542    4.1055 N   0  0  0  0  0  0  0  0  0  0  0  0
   -0.2071   11.8792   -0.5584 O   0  0  0  0  0  0  0  0  0  0  0  0
    3.8965    5.2450    2.3340 C   0  0  0  0  0  0  0  0  0  0  0  0
    3.4272    4.6676    3.4651 N   0  0  0  0  0  0  0  0  0  0  0  0
    4.2767    3.8840    4.1592 C   0  0  0  0  0  0  0  0  0  0  0  0
    3.8059    3.2913    5.2645 F   0  0  0  0  0  0  0  0  0  0  0  0
    5.5946    3.6706    3.8108 C   0  0  0  0  0  0  0  0  0  0  0  0
    6.0886    4.2739    2.6507 C   0  0  0  0  0  0  0  0  0  0  0  0
    5.2322    5.0995    1.8848 C   0  0  0  0  0  0  0  0  0  0  0  0
    5.7758    5.7274    0.7426 C   0  0  0  0  0  0  0  0  0  0  0  0
    7.0969    5.4767    0.3348 C   0  0  0  0  0  0  0  0  0  0  0  0
    7.6280    6.1558   -0.8513 C   0  0  0  0  0  0  0  0  0  0  0  0
    6.9548    6.9656   -1.4703 O   0  0  0  0  0  0  0  0  0  0  0  0
    9.0589    5.8480   -1.2222 C   0  0  0  0  0  0  0  0  0  0  0  0
    9.7103    6.6318   -1.8974 O   0  0  0  0  0  0  0  0  0  0  0  0
    9.5628    4.5304   -0.6822 C   0  0  1  0  0  0  0  0  0  0  0  0
    9.1868    4.2717    0.6796 O   0  0  0  0  0  0  0  0  0  0  0  0
    7.9154    4.6141    1.0484 C   0  0  0  0  0  0  0  0  0  0  0  0
    7.4163    4.0604    2.2281 C   0  0  0  0  0  0  0  0  0  0  0  0
    8.2225    3.2854    2.9728 F   0  0  0  0  0  0  0  0  0  0  0  0
    9.1652    3.3905   -1.5835 C   0  0  1  0  0  0  0  0  0  0  0  0
    7.7524    3.1782   -1.7801 O   0  0  0  0  0  0  0  0  0  0  0  0
    9.9681    3.2731   -2.7629 O   0  0  0  0  0  0  0  0  0  0  0  0
   10.0610    2.1922   -1.8336 C   0  0  3  0  0  0  0  0  0  0  0  0
    9.3940    0.9937   -2.2667 O   0  0  0  0  0  0  0  0  0  0  0  0
    1.3016    2.8800   -1.5001 C   0  0  0  0  0  0  0  0  0  0  0  0
    0.5886    2.1716   -0.8024 O   0  0  0  0  0  0  0  0  0  0  0  0
    1.8201    2.3829   -2.8285 C   0  0  0  0  0  0  0  0  0  0  0  0
    1.9616    1.1872   -3.0266 O   0  0  0  0  0  0  0  0  0  0  0  0
    2.1435    3.3804   -3.9171 C   0  0  0  0  0  0  0  0  0  0  0  0
    2.1715    3.0757   -5.0960 O   0  0  0  0  0  0  0  0  0  0  0  0
  1  2  1  0  0  0  0
  2  3  2  0  0  0  0
  3  4  1  0  0  0  0
  3 53  1  0  0  0  0
  4  5  1  0  0  0  0
  5  6  1  1  0  0  0
  5 49  1  0  0  0  0
  6  7  1  0  0  0  0
  7  8  2  0  0  0  0
  7 12  1  0  0  0  0
  8  9  1  0  0  0  0
  8 26  1  0  0  0  0
  9 10  1  0  0  0  0
 10 11  2  0  0  0  0
 10 21  1  0  0  0  0
 11 12  1  0  0  0  0
 11 13  1  0  0  0  0
 13 14  1  0  0  0  0
 13 19  1  0  0  0  0
 14 15  1  0  0  0  0
 15 16  2  0  0  0  0
 15 17  1  0  0  0  0
 17 18  1  0  0  0  0
 18 19  1  0  0  0  0
 18 25  1  0  0  0  0
 19 20  2  0  0  0  0
 20 21  1  0  0  0  0
 20 22  1  0  0  0  0
 22 23  1  0  0  0  0
 22 24  1  0  0  0  0
 23 24  2  0  0  0  0
 26 27  2  0  0  0  0
 26 32  1  0  0  0  0
 27 28  1  0  0  0  0
 28 29  1  0  0  0  0
 28 30  2  0  0  0  0
 30 31  1  0  0  0  0
 31 32  2  0  0  0  0
 31 42  1  0  0  0  0
 32 33  1  0  0  0  0
 33 34  2  0  0  0  0
 34 35  1  0  0  0  0
 34 41  1  0  0  0  0
 35 36  2  0  0  0  0
 35 37  1  0  0  0  0
 37 38  2  0  0  0  0
 39 37  1  6  0  0  0
 39 40  1  0  0  0  0
 39 44  1  0  0  0  0
 40 41  1  0  0  0  0
 41 42  2  0  0  0  0
 42 43  1  0  0  0  0
 44 45  1  6  0  0  0
 44 46  1  0  0  0  0
 44 47  1  0  0  0  0
 46 47  1  0  0  0  0
 47 48  1  0  0  0  0
 49 50  2  0  0  0  0
 49 51  1  0  0  0  0
 51 52  2  0  0  0  0
 51 53  1  0  0  0  0
 53 54  2  0  0  0  0
M  CHG  1  21   1
M  END
$$$$