
 OpenBabel11212020223D

 54 62  0  0  1  0  0  0  0  0999 V2000
    5.8287    4.0035    5.0471 O   0  0  0  0  0  0  0  0  0  0  0  0
    5.6116    3.7270    3.7186 C   0  0  0  0  0  0  0  0  0  0  0  0
    4.7252    2.8179    3.2966 C   0  0  0  0  0  0  0  0  0  0  0  0
    4.0344    2.0247    4.1854 O   0  0  0  0  0  0  0  0  0  0  0  0
    2.6398    1.9810    3.9325 C   0  0  2  0  0  0  0  0  0  0  0  0
    1.9736    1.1409    4.9126 O   0  0  0  0  0  0  0  0  0  0  0  0
    2.3363    1.2622    6.2487 C   0  0  0  0  0  0  0  0  0  0  0  0
    2.2148    0.2248    7.1136 C   0  0  0  0  0  0  0  0  0  0  0  0
    2.6060    0.3506    8.4559 O   0  0  0  0  0  0  0  0  0  0  0  0
    3.0052    1.5762    8.9792 C   0  0  0  0  0  0  0  0  0  0  0  0
    3.0155    2.6782    8.2127 C   0  0  0  0  0  0  0  0  0  0  0  0
    2.7643    2.6254    6.7389 C   0  0  0  0  0  0  0  0  0  0  0  0
    3.3037    4.0381    8.7714 C   0  0  3  0  0  0  0  0  0  0  0  0
    2.1029    4.7796    8.6537 O   0  0  0  0  0  0  0  0  0  0  0  0
    2.1138    6.0561    9.1214 C   0  0  0  0  0  0  0  0  0  0  0  0
    1.2693    6.8648    8.7763 O   0  0  0  0  0  0  0  0  0  0  0  0
    3.1191    6.3529    9.9822 O   0  0  0  0  0  0  0  0  0  0  0  0
    3.8366    5.3650   10.7443 C   0  0  0  0  0  0  0  0  0  0  0  0
    3.6208    3.9869   10.2171 C   0  0  0  0  0  0  0  0  0  0  0  0
    3.6502    2.8353   10.9256 C   0  0  0  0  0  0  0  0  0  0  0  0
    3.3587    1.6243   10.3119 O   0  3  0  0  0  0  0  0  0  0  0  0
    4.0042    2.7726   12.3617 C   0  0  0  0  0  0  0  0  0  0  0  0
    4.5991    1.5881   12.9144 O   0  0  0  0  0  0  0  0  0  0  0  0
    5.3732    2.7969   12.7831 O   0  0  0  0  0  0  0  0  0  0  0  0
    1.5716   -1.1008    6.7805 C   0  0  0  0  0  0  0  0  0  0  0  0
    0.5436   -1.1168    5.8391 C   0  0  0  0  0  0  0  0  0  0  0  0
   -0.1585   -2.2216    5.5868 N   0  3  0  0  0  0  0  0  0  0  0  0
   -1.1504   -2.1642    4.6773 F   0  0  0  0  0  0  0  0  0  0  0  0
    0.0276   -3.3465    6.2428 N   0  0  0  0  0  0  0  0  0  0  0  0
    0.9512   -3.4258    7.2055 C   0  0  0  0  0  0  0  0  0  0  0  0
    1.7953   -2.3198    7.4807 C   0  0  0  0  0  0  0  0  0  0  0  0
    2.7768   -2.4823    8.4787 C   0  0  0  0  0  0  0  0  0  0  0  0
    2.8158   -3.6181    9.2928 C   0  0  0  0  0  0  0  0  0  0  0  0
    3.6284   -3.5587   10.5112 C   0  0  0  0  0  0  0  0  0  0  0  0
    4.3972   -2.6314   10.7204 O   0  0  0  0  0  0  0  0  0  0  0  0
    3.2193   -4.5391   11.5750 C   0  0  0  0  0  0  0  0  0  0  0  0
    3.1526   -4.1719   12.7384 O   0  0  0  0  0  0  0  0  0  0  0  0
    2.7660   -5.8743   11.0308 C   0  0  1  0  0  0  0  0  0  0  0  0
    1.9720   -5.8261    9.8306 O   0  0  0  0  0  0  0  0  0  0  0  0
    1.9715   -4.6927    9.0623 C   0  0  0  0  0  0  0  0  0  0  0  0
    1.0557   -4.6083    7.9867 C   0  0  0  0  0  0  0  0  0  0  0  0
    0.1689   -5.7572    7.6729 C   0  0  0  0  0  0  0  0  0  0  0  0
   -1.0722   -5.9475    8.1441 C   0  0  0  0  0  0  0  0  0  0  0  0
    3.9333   -6.7802   10.8362 C   0  0  1  0  0  0  0  0  0  0  0  0
    4.9529   -6.3214    9.9151 O   0  0  0  0  0  0  0  0  0  0  0  0
    4.4069   -7.4113   12.0246 O   0  0  0  0  0  0  0  0  0  0  0  0
    3.8943   -8.2260   11.0766 C   0  0  0  0  0  0  0  0  0  0  0  0
    4.4145   -9.1133   10.4497 O   0  0  0  0  0  0  0  0  0  0  0  0
    2.3317    1.3814    2.5663 C   0  0  0  0  0  0  0  0  0  0  0  0
    1.3211    0.7347    2.3165 O   0  0  0  0  0  0  0  0  0  0  0  0
    3.4052    1.6401    1.5250 C   0  0  0  0  0  0  0  0  0  0  0  0
    3.3848    1.0288    0.4699 O   0  0  0  0  0  0  0  0  0  0  0  0
    4.5329    2.6071    1.8382 C   0  0  0  0  0  0  0  0  0  0  0  0
    5.1856    3.1611    0.9744 O   0  0  0  0  0  0  0  0  0  0  0  0
  1  2  1  0  0  0  0
  2  3  2  0  0  0  0
  3  4  1  0  0  0  0
  3 53  1  0  0  0  0
  4  5  1  0  0  0  0
  5  6  1  1  0  0  0
  5 49  1  0  0  0  0
  6  7  1  0  0  0  0
  7  8  2  0  0  0  0
  7 12  1  0  0  0  0
  8  9  1  0  0  0  0
  8 25  1  0  0  0  0
  9 10  1  0  0  0  0
 10 11  2  0  0  0  0
 10 21  1  0  0  0  0
 11 12  1  0  0  0  0
 11 13  1  0  0  0  0
 13 14  1  0  0  0  0
 13 19  1  0  0  0  0
 14 15  1  0  0  0  0
 15 16  2  0  0  0  0
 15 17  1  0  0  0  0
 17 18  1  0  0  0  0
 18 19  1  0  0  0  0
 19 20  2  0  0  0  0
 20 21  1  0  0  0  0
 20 22  1  0  0  0  0
 22 23  1  0  0  0  0
 22 24  1  0  0  0  0
 23 24  1  0  0  0  0
 25 26  2  0  0  0  0
 25 31  1  0  0  0  0
 26 27  1  0  0  0  0
 27 28  1  0  0  0  0
 27 29  2  0  0  0  0
 29 30  1  0  0  0  0
 30 31  2  0  0  0  0
 30 41  1  0  0  0  0
 31 32  1  0  0  0  0
 32 33  2  0  0  0  0
 33 34  1  0  0  0  0
 33 40  1  0  0  0  0
 34 35  2  0  0  0  0
 34 36  1  0  0  0  0
 36 37  2  0  0  0  0
 38 36  1  6  0  0  0
 38 39  1  0  0  0  0
 38 44  1  0  0  0  0
 39 40  1  0  0  0  0
 40 41  2  0  0  0  0
 41 42  1  0  0  0  0
 42 43  2  0  0  0  0
 44 45  1  6  0  0  0
 44 46  1  0  0  0  0
 44 47  1  0  0  0  0
 46 47  1  0  0  0  0
 47 48  2  0  0  0  0
 49 50  2  0  0  0  0
 49 51  1  0  0  0  0
 51 52  2  0  0  0  0
 51 53  1  0  0  0  0
 53 54  2  0  0  0  0
M  CHG  2  21   1  27   1
M  END
$$$$