
 OpenBabel11202011253D

 53 61  0  0  1  0  0  0  0  0999 V2000
    3.4310    8.6354   -3.4852 O   0  0  0  0  0  0  0  0  0  0  0  0
    3.0623    7.5442   -4.2271 C   0  0  0  0  0  0  0  0  0  0  0  0
    2.8763    6.3342   -3.6869 C   0  0  0  0  0  0  0  0  0  0  0  0
    3.0810    6.1131   -2.3338 O   0  0  0  0  0  0  0  0  0  0  0  0
    2.2915    5.0593   -1.7807 C   0  0  2  0  0  0  0  0  0  0  0  0
    2.5190    4.9193   -0.3600 O   0  0  0  0  0  0  0  0  0  0  0  0
    2.2697    6.0343    0.4323 C   0  0  0  0  0  0  0  0  0  0  0  0
    2.9910    6.2670    1.5509 C   0  0  0  0  0  0  0  0  0  0  0  0
    2.8075    7.3821    2.3606 O   0  0  0  0  0  0  0  0  0  0  0  0
    1.9086    8.3610    1.9616 C   0  0  0  0  0  0  0  0  0  0  0  0
    1.0862    8.1898    0.9123 C   0  0  0  0  0  0  0  0  0  0  0  0
    1.1393    6.9668    0.0548 C   0  0  0  0  0  0  0  0  0  0  0  0
    0.1222    9.2790    0.5037 C   0  0  3  0  0  0  0  0  0  0  0  0
   -1.1974    8.7577    0.6280 O   0  0  0  0  0  0  0  0  0  0  0  0
   -2.2754    9.5846    0.6106 C   0  0  0  0  0  0  0  0  0  0  0  0
   -3.4112    9.1330    0.5506 O   0  0  0  0  0  0  0  0  0  0  0  0
   -2.0489   10.9196    0.6796 O   0  0  0  0  0  0  0  0  0  0  0  0
   -0.7637   11.5035    0.8496 C   0  0  3  0  0  0  0  0  0  0  0  0
    0.2212   10.5131    1.3247 C   0  0  0  0  0  0  0  0  0  0  0  0
    1.0955   10.6298    2.3479 C   0  0  0  0  0  0  0  0  0  0  0  0
    1.8985    9.5407    2.6613 N   0  0  0  0  0  0  0  0  0  0  0  0
    1.2760   11.8502    3.1677 C   0  0  0  0  0  0  0  0  0  0  0  0
    0.5006   12.0859    4.3513 O   0  0  0  0  0  0  0  0  0  0  0  0
    1.9120   11.8137    4.4576 O   0  0  0  0  0  0  0  0  0  0  0  0
   -0.3112   11.9975   -0.3996 O   0  0  0  0  0  0  0  0  0  0  0  0
    4.0463    5.3595    2.0334 C   0  0  0  0  0  0  0  0  0  0  0  0
    3.6825    4.3381    2.9067 C   0  0  0  0  0  0  0  0  0  0  0  0
    4.6005    3.4636    3.3518 N   0  3  0  0  0  0  0  0  0  0  0  0
    4.2562    2.3836    4.2150 N   0  0  0  0  0  0  0  0  0  0  0  0
    5.8691    3.5276    2.9911 N   0  0  0  0  0  0  0  0  0  0  0  0
    6.2799    4.5022    2.1754 C   0  0  0  0  0  0  0  0  0  0  0  0
    5.3980    5.4674    1.6579 C   0  0  0  0  0  0  0  0  0  0  0  0
    5.9141    6.4780    0.8121 C   0  0  0  0  0  0  0  0  0  0  0  0
    7.2817    6.5289    0.5127 C   0  0  0  0  0  0  0  0  0  0  0  0
    8.1483    5.5751    1.0173 C   0  0  0  0  0  0  0  0  0  0  0  0
    7.6311    4.5672    1.8365 C   0  0  0  0  0  0  0  0  0  0  0  0
    9.4937    5.5321    0.7925 O   0  0  0  0  0  0  0  0  0  0  0  0
   10.0739    6.4815   -0.1188 C   0  0  2  0  0  0  0  0  0  0  0  0
    9.3159    7.7780   -0.2679 C   0  0  0  0  0  0  0  0  0  0  0  0
    9.8175    8.8891   -0.3394 O   0  0  0  0  0  0  0  0  0  0  0  0
    7.8203    7.6093   -0.3126 C   0  0  0  0  0  0  0  0  0  0  0  0
    7.1058    8.3376   -0.9786 O   0  0  0  0  0  0  0  0  0  0  0  0
   10.3152    5.8360   -1.4548 C   0  0  1  0  0  0  0  0  0  0  0  0
    9.1564    5.2976   -2.1288 O   0  0  0  0  0  0  0  0  0  0  0  0
   11.2285    6.5178   -2.3194 O   0  0  0  0  0  0  0  0  0  0  0  0
   11.6277    5.3343   -1.8329 C   0  0  0  0  0  0  0  0  0  0  0  0
   12.6100    5.0342   -1.1781 O   0  0  0  0  0  0  0  0  0  0  0  0
    2.6647    3.7471   -2.4546 C   0  0  0  0  0  0  0  0  0  0  0  0
    2.9127    2.6960   -1.8807 O   0  0  0  0  0  0  0  0  0  0  0  0
    2.6978    3.8540   -3.9635 C   0  0  0  0  0  0  0  0  0  0  0  0
    2.9041    2.8693   -4.6531 O   0  0  0  0  0  0  0  0  0  0  0  0
    2.5193    5.2154   -4.6005 C   0  0  0  0  0  0  0  0  0  0  0  0
    2.1055    5.3536   -5.7375 O   0  0  0  0  0  0  0  0  0  0  0  0
  1  2  1  0  0  0  0
  2  3  2  0  0  0  0
  3  4  1  0  0  0  0
  3 52  1  0  0  0  0
  4  5  1  0  0  0  0
  5  6  1  1  0  0  0
  5 48  1  0  0  0  0
  6  7  1  0  0  0  0
  7  8  2  0  0  0  0
  7 12  1  0  0  0  0
  8  9  1  0  0  0  0
  8 26  1  0  0  0  0
  9 10  1  0  0  0  0
 10 11  2  0  0  0  0
 10 21  1  0  0  0  0
 11 12  1  0  0  0  0
 11 13  1  0  0  0  0
 13 14  1  0  0  0  0
 13 19  1  0  0  0  0
 14 15  1  0  0  0  0
 15 16  2  0  0  0  0
 15 17  1  0  0  0  0
 17 18  1  0  0  0  0
 18 19  1  0  0  0  0
 18 25  1  0  0  0  0
 19 20  2  0  0  0  0
 20 21  1  0  0  0  0
 20 22  1  0  0  0  0
 22 23  1  0  0  0  0
 22 24  1  0  0  0  0
 23 24  1  0  0  0  0
 26 27  2  0  0  0  0
 26 32  1  0  0  0  0
 27 28  1  0  0  0  0
 28 29  1  0  0  0  0
 28 30  2  0  0  0  0
 30 31  1  0  0  0  0
 31 32  2  0  0  0  0
 31 36  1  0  0  0  0
 32 33  1  0  0  0  0
 33 34  2  0  0  0  0
 34 35  1  0  0  0  0
 34 41  1  0  0  0  0
 35 36  2  0  0  0  0
 35 37  1  0  0  0  0
 38 37  1  1  0  0  0
 38 39  1  0  0  0  0
 38 43  1  0  0  0  0
 39 40  2  0  0  0  0
 39 41  1  0  0  0  0
 41 42  2  0  0  0  0
 43 44  1  6  0  0  0
 43 45  1  0  0  0  0
 43 46  1  0  0  0  0
 45 46  1  0  0  0  0
 46 47  2  0  0  0  0
 48 49  2  0  0  0  0
 48 50  1  0  0  0  0
 50 51  2  0  0  0  0
 50 52  1  0  0  0  0
 52 53  2  0  0  0  0
M  CHG  1  28   1
M  END
$$$$