
 OpenBabel11272002043D

 54 63  0  0  1  0  0  0  0  0999 V2000
    3.5721  -10.5614  -11.4495 O   0  0  0  0  0  0  0  0  0  0  0  0
    3.0878   -9.4734  -12.1339 C   0  0  0  0  0  0  0  0  0  0  0  0
    2.7293   -8.3398  -11.5214 C   0  0  0  0  0  0  0  0  0  0  0  0
    2.8142   -8.2262  -10.1433 O   0  0  0  0  0  0  0  0  0  0  0  0
    3.3151   -6.9618   -9.7463 C   0  0  2  0  0  0  0  0  0  0  0  0
    3.5299   -6.9384   -8.3216 O   0  0  0  0  0  0  0  0  0  0  0  0
    4.7685   -7.3195   -7.8440 C   0  0  0  0  0  0  0  0  0  0  0  0
    5.2580   -6.8770   -6.6560 C   0  0  0  0  0  0  0  0  0  0  0  0
    6.5579   -7.2605   -6.2638 O   0  0  0  0  0  0  0  0  0  0  0  0
    7.2938   -8.2231   -6.9588 C   0  0  0  0  0  0  0  0  0  0  0  0
    6.8049   -8.7694   -8.0812 C   0  0  0  0  0  0  0  0  0  0  0  0
    5.5294   -8.3126   -8.6901 C   0  0  0  0  0  0  0  0  0  0  0  0
    7.4943   -9.8812   -8.7997 C   0  0  3  0  0  0  0  0  0  0  0  0
    7.6471   -9.5547  -10.1592 O   0  0  0  0  0  0  0  0  0  0  0  0
    8.0418  -10.6228  -10.9153 C   0  0  0  0  0  0  0  0  0  0  0  0
    7.7282  -10.7405  -12.1006 O   0  0  0  0  0  0  0  0  0  0  0  0
    8.7572  -11.5542  -10.2386 O   0  0  0  0  0  0  0  0  0  0  0  0
    9.5730  -11.0842   -9.1730 C   0  0  3  0  0  0  0  0  0  0  0  0
    8.8616  -10.1155   -8.2815 C   0  0  0  0  0  0  0  0  0  0  0  0
    9.3346   -9.5065   -7.1691 C   0  0  0  0  0  0  0  0  0  0  0  0
    8.5272   -8.6055   -6.4651 O   0  3  0  0  0  0  0  0  0  0  0  0
   10.6866   -9.7289   -6.6114 C   0  0  3  0  0  0  0  0  0  0  0  0
   10.8458   -9.5668   -5.2083 N   0  0  0  0  0  0  0  0  0  0  0  0
   11.2737   -8.6357   -5.9125 N   0  0  0  0  0  0  0  0  0  0  0  0
    9.9079  -12.1741   -8.3421 O   0  0  0  0  0  0  0  0  0  0  0  0
    4.5300   -5.9469   -5.6703 C   0  0  0  0  0  0  0  0  0  0  0  0
    3.2280   -5.5146   -5.9479 C   0  0  0  0  0  0  0  0  0  0  0  0
    2.5623   -4.6756   -5.1505 N   0  3  0  0  0  0  0  0  0  0  0  0
    1.3147   -4.3009   -5.4968 F   0  0  0  0  0  0  0  0  0  0  0  0
    3.0672   -4.1998   -4.0400 N   0  0  0  0  0  0  0  0  0  0  0  0
    4.2878   -4.5626   -3.6565 C   0  0  0  0  0  0  0  0  0  0  0  0
    5.0712   -5.4591   -4.4322 C   0  0  0  0  0  0  0  0  0  0  0  0
    6.3346   -5.7917   -3.8908 C   0  0  0  0  0  0  0  0  0  0  0  0
    6.8212   -5.2497   -2.6979 C   0  0  0  0  0  0  0  0  0  0  0  0
    6.0627   -4.3463   -1.9812 C   0  0  0  0  0  0  0  0  0  0  0  0
    4.7720   -4.0298   -2.4363 C   0  0  0  0  0  0  0  0  0  0  0  0
    4.0557   -3.0062   -1.7764 N   0  0  0  0  0  0  0  0  0  0  0  0
    6.4932   -3.7852   -0.7993 O   0  0  0  0  0  0  0  0  0  0  0  0
    7.9178   -3.8977   -0.5594 C   0  0  1  0  0  0  0  0  0  0  0  0
    8.5121   -5.2078   -0.8228 C   0  0  0  0  0  0  0  0  0  0  0  0
    9.1129   -5.8920   -0.0159 O   0  0  0  0  0  0  0  0  0  0  0  0
    8.1370   -5.6854   -2.2066 C   0  0  0  0  0  0  0  0  0  0  0  0
    8.8402   -6.4229   -2.8840 O   0  0  0  0  0  0  0  0  0  0  0  0
    8.7258   -2.7648   -1.0837 O   0  0  0  0  0  0  0  0  0  0  0  0
    8.5595   -2.9572    0.2938 C   0  0  1  0  0  0  0  0  0  0  0  0
    8.0753   -1.9249    1.0868 O   0  0  0  0  0  0  0  0  0  0  0  0
    9.4127   -2.5470    1.3626 C   0  0  3  0  0  0  0  0  0  0  0  0
   10.5363   -1.7191    1.0402 O   0  0  0  0  0  0  0  0  0  0  0  0
    2.3339   -5.8630  -10.0887 C   0  0  0  0  0  0  0  0  0  0  0  0
    2.0554   -4.9349   -9.3394 O   0  0  0  0  0  0  0  0  0  0  0  0
    1.8023   -5.9943  -11.5021 C   0  0  0  0  0  0  0  0  0  0  0  0
    1.0480   -5.1501  -11.9495 O   0  0  0  0  0  0  0  0  0  0  0  0
    2.2565   -7.1835  -12.3407 C   0  0  0  0  0  0  0  0  0  0  0  0
    2.3127   -7.1367  -13.5545 O   0  0  0  0  0  0  0  0  0  0  0  0
  1  2  1  0  0  0  0
  2  3  2  0  0  0  0
  3  4  1  0  0  0  0
  3 53  1  0  0  0  0
  4  5  1  0  0  0  0
  5  6  1  1  0  0  0
  5 49  1  0  0  0  0
  6  7  1  0  0  0  0
  7  8  2  0  0  0  0
  7 12  1  0  0  0  0
  8  9  1  0  0  0  0
  8 26  1  0  0  0  0
  9 10  1  0  0  0  0
 10 11  2  0  0  0  0
 10 21  1  0  0  0  0
 11 12  1  0  0  0  0
 11 13  1  0  0  0  0
 13 14  1  0  0  0  0
 13 19  1  0  0  0  0
 14 15  1  0  0  0  0
 15 16  2  0  0  0  0
 15 17  1  0  0  0  0
 17 18  1  0  0  0  0
 18 19  1  0  0  0  0
 18 25  1  0  0  0  0
 19 20  2  0  0  0  0
 20 21  1  0  0  0  0
 20 22  1  0  0  0  0
 22 23  1  0  0  0  0
 22 24  1  0  0  0  0
 23 24  2  0  0  0  0
 26 27  2  0  0  0  0
 26 32  1  0  0  0  0
 27 28  1  0  0  0  0
 28 29  1  0  0  0  0
 28 30  2  0  0  0  0
 30 31  1  0  0  0  0
 31 32  2  0  0  0  0
 31 36  1  0  0  0  0
 32 33  1  0  0  0  0
 33 34  2  0  0  0  0
 34 35  1  0  0  0  0
 34 42  1  0  0  0  0
 35 36  2  0  0  0  0
 35 38  1  0  0  0  0
 36 37  1  0  0  0  0
 39 38  1  6  0  0  0
 39 40  1  0  0  0  0
 39 44  1  0  0  0  0
 39 45  1  0  0  0  0
 40 41  2  0  0  0  0
 40 42  1  0  0  0  0
 42 43  2  0  0  0  0
 45 44  1  6  0  0  0
 45 46  1  0  0  0  0
 45 47  1  0  0  0  0
 46 47  1  0  0  0  0
 47 48  1  0  0  0  0
 49 50  2  0  0  0  0
 49 51  1  0  0  0  0
 51 52  2  0  0  0  0
 51 53  1  0  0  0  0
 53 54  2  0  0  0  0
M  CHG  2  21   1  28   1
M  END
$$$$