
 OpenBabel09282019523D

 51 59  0  0  1  0  0  0  0  0999 V2000
   -1.5430    5.2980    1.1122 O   0  0  0  0  0  0  0  0  0  0  0  0
   -2.3167    5.1300   -0.0065 C   0  0  0  0  0  0  0  0  0  0  0  0
   -1.7943    4.9525   -1.2255 C   0  0  0  0  0  0  0  0  0  0  0  0
   -0.4289    5.0125   -1.4174 O   0  0  0  0  0  0  0  0  0  0  0  0
    0.1117    4.1571   -2.4195 C   0  0  2  0  0  0  0  0  0  0  0  0
    1.5323    4.2952   -2.4973 O   0  0  0  0  0  0  0  0  0  0  0  0
    2.0158    5.4857   -2.9991 C   0  0  0  0  0  0  0  0  0  0  0  0
    1.3149    6.6707   -2.8059 N   0  0  0  0  0  0  0  0  0  0  0  0
    1.8590    7.8839   -3.2199 C   0  0  0  0  0  0  0  0  0  0  0  0
    3.0162    7.9558   -3.9339 C   0  0  0  0  0  0  0  0  0  0  0  0
    3.6636    6.7530   -4.2003 N   0  0  0  0  0  0  0  0  0  0  0  0
    3.1956    5.5364   -3.6771 C   0  0  0  0  0  0  0  0  0  0  0  0
    4.0392    4.3398   -3.8663 C   0  0  0  0  0  0  0  0  0  0  0  0
    4.9944    4.1805   -2.9236 N   0  0  0  0  0  0  0  0  0  0  0  0
    5.8061    3.1341   -3.0854 C   0  0  0  0  0  0  0  0  0  0  0  0
    5.7906    2.2799   -4.1163 N   0  0  0  0  0  0  0  0  0  0  0  0
    4.8587    2.4716   -5.0549 C   0  0  0  0  0  0  0  0  0  0  0  0
    3.9073    3.4981   -4.9805 C   0  0  0  0  0  0  0  0  0  0  0  0
    2.9397    3.6302   -6.0065 C   0  0  0  0  0  0  0  0  0  0  0  0
    2.9581    2.7696   -7.1042 C   0  0  0  0  0  0  0  0  0  0  0  0
    3.9122    1.7681   -7.1923 C   0  0  0  0  0  0  0  0  0  0  0  0
    4.8459    1.6290   -6.1615 C   0  0  0  0  0  0  0  0  0  0  0  0
    4.0409    0.8942   -8.2314 O   0  0  0  0  0  0  0  0  0  0  0  0
    3.0388    0.9031   -9.2544 C   0  0  2  0  0  0  0  0  0  0  0  0
    2.3165    2.2075   -9.4674 C   0  0  0  0  0  0  0  0  0  0  0  0
    1.9226    2.6107  -10.5517 O   0  0  0  0  0  0  0  0  0  0  0  0
    2.0009    2.9455   -8.1965 C   0  0  0  0  0  0  0  0  0  0  0  0
    0.9983    3.6315   -8.1102 O   0  0  0  0  0  0  0  0  0  0  0  0
    2.0960   -0.2466   -9.0668 C   0  0  1  0  0  0  0  0  0  0  0  0
    2.6974   -1.5641   -9.0932 O   0  0  0  0  0  0  0  0  0  0  0  0
    1.0897   -0.0459   -8.0764 O   0  0  0  0  0  0  0  0  0  0  0  0
    0.6551   -0.2110   -9.3469 C   0  0  0  0  0  0  0  0  0  0  0  0
   -0.0675   -1.0668   -9.8008 O   0  0  0  0  0  0  0  0  0  0  0  0
    3.5032    9.1751   -4.3464 N   0  0  0  0  0  0  0  0  0  0  0  0
    2.8795   10.3891   -4.0875 C   0  0  0  0  0  0  0  0  0  0  0  0
    1.7526   10.4124   -3.3486 C   0  0  0  0  0  0  0  0  0  0  0  0
    1.1731    9.1536   -2.8367 C   0  0  0  0  0  0  0  0  0  0  0  0
    0.1145    9.1329   -2.0910 N   0  0  0  0  0  0  0  0  0  0  0  0
   -0.4750   10.3324   -1.7450 C   0  0  0  0  0  0  0  0  0  0  0  0
   -1.4138   10.3056   -0.9595 O   0  0  0  0  0  0  0  0  0  0  0  0
   -0.0652   11.5565   -2.2390 N   0  0  0  0  0  0  0  0  0  0  0  0
    0.9854   11.6017   -2.9830 C   0  0  0  0  0  0  0  0  0  0  0  0
    3.5260   11.5884   -4.6689 C   0  0  0  0  0  0  0  0  0  0  0  0
    4.0114   12.6655   -3.8522 O   0  0  0  0  0  0  0  0  0  0  0  0
    4.9405   11.8164   -4.5519 O   0  0  0  0  0  0  0  0  0  0  0  0
   -0.6124    4.2455   -3.7609 C   0  0  0  0  0  0  0  0  0  0  0  0
   -0.1008    4.2929   -4.8687 O   0  0  0  0  0  0  0  0  0  0  0  0
   -2.1027    4.1714   -3.6025 C   0  0  0  0  0  0  0  0  0  0  0  0
   -2.7741    3.5892   -4.4412 O   0  0  0  0  0  0  0  0  0  0  0  0
   -2.7439    4.7029   -2.3444 C   0  0  0  0  0  0  0  0  0  0  0  0
   -3.9528    4.8521   -2.2631 O   0  0  0  0  0  0  0  0  0  0  0  0
  1  2  1  0  0  0  0
  2  3  2  0  0  0  0
  3  4  1  0  0  0  0
  3 50  1  0  0  0  0
  4  5  1  0  0  0  0
  5  6  1  6  0  0  0
  5 46  1  0  0  0  0
  6  7  1  0  0  0  0
  7  8  1  0  0  0  0
  7 12  2  0  0  0  0
  8  9  1  0  0  0  0
  9 10  2  0  0  0  0
  9 37  1  0  0  0  0
 10 11  1  0  0  0  0
 10 34  1  0  0  0  0
 11 12  1  0  0  0  0
 12 13  1  0  0  0  0
 13 14  2  0  0  0  0
 13 18  1  0  0  0  0
 14 15  1  0  0  0  0
 15 16  2  0  0  0  0
 16 17  1  0  0  0  0
 17 18  2  0  0  0  0
 17 22  1  0  0  0  0
 18 19  1  0  0  0  0
 19 20  2  0  0  0  0
 20 21  1  0  0  0  0
 20 27  1  0  0  0  0
 21 22  2  0  0  0  0
 21 23  1  0  0  0  0
 24 23  1  1  0  0  0
 24 25  1  0  0  0  0
 24 29  1  0  0  0  0
 25 26  2  0  0  0  0
 25 27  1  0  0  0  0
 27 28  2  0  0  0  0
 29 30  1  6  0  0  0
 29 31  1  0  0  0  0
 29 32  1  0  0  0  0
 31 32  1  0  0  0  0
 32 33  2  0  0  0  0
 34 35  1  0  0  0  0
 35 36  2  0  0  0  0
 35 43  1  0  0  0  0
 36 37  1  0  0  0  0
 36 42  1  0  0  0  0
 37 38  2  0  0  0  0
 38 39  1  0  0  0  0
 39 40  2  0  0  0  0
 39 41  1  0  0  0  0
 41 42  2  0  0  0  0
 43 44  1  0  0  0  0
 43 45  1  0  0  0  0
 44 45  1  0  0  0  0
 46 47  2  0  0  0  0
 46 48  1  0  0  0  0
 48 49  2  0  0  0  0
 48 50  1  0  0  0  0
 50 51  2  0  0  0  0
M  END
$$$$