
 OpenBabel11252023443D

 54 62  0  0  1  0  0  0  0  0999 V2000
    3.0626    4.6170    3.0261 O   0  0  0  0  0  0  0  0  0  0  0  0
    3.6655    3.4206    2.7307 C   0  0  0  0  0  0  0  0  0  0  0  0
    3.6160    2.8833    1.5066 C   0  0  0  0  0  0  0  0  0  0  0  0
    2.9138    3.5257    0.5050 O   0  0  0  0  0  0  0  0  0  0  0  0
    3.3266    3.1909   -0.8117 C   0  0  2  0  0  0  0  0  0  0  0  0
    2.5753    3.9417   -1.7821 O   0  0  0  0  0  0  0  0  0  0  0  0
    2.7220    5.3243   -1.6995 C   0  0  0  0  0  0  0  0  0  0  0  0
    1.7240    6.1573   -2.0606 C   0  0  0  0  0  0  0  0  0  0  0  0
    1.8387    7.5381   -2.0849 O   0  0  0  0  0  0  0  0  0  0  0  0
    3.0461    8.1167   -1.7599 C   0  0  0  0  0  0  0  0  0  0  0  0
    4.1391    7.3690   -1.3861 C   0  0  0  0  0  0  0  0  0  0  0  0
    4.0626    5.8844   -1.2880 C   0  0  0  0  0  0  0  0  0  0  0  0
    5.2975    8.0702   -1.0760 C   0  0  0  0  0  0  0  0  0  0  0  0
    6.4135    7.3466   -0.6408 O   0  0  0  0  0  0  0  0  0  0  0  0
    7.6754    7.9287   -0.5084 C   0  0  0  0  0  0  0  0  0  0  0  0
    8.6582    7.2467   -0.2499 O   0  0  0  0  0  0  0  0  0  0  0  0
    7.7624    9.2536   -0.7794 O   0  0  0  0  0  0  0  0  0  0  0  0
    6.6226   10.1010   -0.7018 C   0  0  3  0  0  0  0  0  0  0  0  0
    5.3606    9.4465   -1.1374 C   0  0  0  0  0  0  0  0  0  0  0  0
    4.2059   10.1403   -1.5122 C   0  0  0  0  0  0  0  0  0  0  0  0
    3.0649    9.4611   -1.8382 N   0  0  0  0  0  0  0  0  0  0  0  0
    4.1645   11.6509   -1.5419 C   0  0  0  0  0  0  0  0  0  0  0  0
    4.5658   12.2905   -2.7627 O   0  0  0  0  0  0  0  0  0  0  0  0
    3.1783   12.2862   -2.3699 O   0  0  0  0  0  0  0  0  0  0  0  0
    6.4407   10.5393    0.6317 O   0  0  0  0  0  0  0  0  0  0  0  0
    0.4321    5.6923   -2.5943 C   0  0  0  0  0  0  0  0  0  0  0  0
    0.3612    5.5250   -3.9706 C   0  0  0  0  0  0  0  0  0  0  0  0
   -0.7729    5.1329   -4.5511 N   0  3  0  0  0  0  0  0  0  0  0  0
   -0.8114    5.0064   -5.8907 F   0  0  0  0  0  0  0  0  0  0  0  0
   -1.8681    4.8731   -3.8679 N   0  0  0  0  0  0  0  0  0  0  0  0
   -1.8704    5.0063   -2.5365 C   0  0  0  0  0  0  0  0  0  0  0  0
   -0.7265    5.4419   -1.8317 C   0  0  0  0  0  0  0  0  0  0  0  0
   -0.8100    5.6011   -0.4270 C   0  0  0  0  0  0  0  0  0  0  0  0
   -1.9847    5.2723    0.2603 C   0  0  0  0  0  0  0  0  0  0  0  0
   -2.0812    5.4445    1.7175 C   0  0  0  0  0  0  0  0  0  0  0  0
   -1.1490    5.8556    2.3863 O   0  0  0  0  0  0  0  0  0  0  0  0
   -3.4032    5.0659    2.3442 C   0  0  0  0  0  0  0  0  0  0  0  0
   -3.7964    5.6017    3.3682 O   0  0  0  0  0  0  0  0  0  0  0  0
   -4.1432    4.0049    1.5776 C   0  0  1  0  0  0  0  0  0  0  0  0
   -4.2305    4.3276    0.1784 O   0  0  0  0  0  0  0  0  0  0  0  0
   -3.0780    4.7646   -0.4279 C   0  0  0  0  0  0  0  0  0  0  0  0
   -3.0516    4.7023   -1.8335 C   0  0  0  0  0  0  0  0  0  0  0  0
   -4.1524    4.1096   -2.5036 N   0  0  0  0  0  0  0  0  0  0  0  0
   -3.5537    2.6369    1.7841 C   0  0  1  0  0  0  0  0  0  0  0  0
   -2.1784    2.4353    1.3897 O   0  0  0  0  0  0  0  0  0  0  0  0
   -3.9067    1.9767    3.0007 O   0  0  0  0  0  0  0  0  0  0  0  0
   -4.4257    1.4667    1.8646 C   0  0  0  0  0  0  0  0  0  0  0  0
   -5.5730    1.2962    1.5348 O   0  0  0  0  0  0  0  0  0  0  0  0
    3.1235    1.6909   -0.9806 C   0  0  0  0  0  0  0  0  0  0  0  0
    2.4107    1.2090   -1.8616 O   0  0  0  0  0  0  0  0  0  0  0  0
    3.9695    0.8603   -0.0410 C   0  0  3  0  0  0  0  0  0  0  0  0
    4.2658    1.5524    1.2738 C   0  0  0  0  0  0  0  0  0  0  0  0
    5.0096    1.0574    2.1189 O   0  0  0  0  0  0  0  0  0  0  0  0
    3.4243   -0.3745    0.1653 F   0  0  0  0  0  0  0  0  0  0  0  0
  1  2  1  0  0  0  0
  2  3  2  0  0  0  0
  3  4  1  0  0  0  0
  3 52  1  0  0  0  0
  4  5  1  0  0  0  0
  5  6  1  6  0  0  0
  5 49  1  0  0  0  0
  6  7  1  0  0  0  0
  7  8  2  0  0  0  0
  7 12  1  0  0  0  0
  8  9  1  0  0  0  0
  8 26  1  0  0  0  0
  9 10  1  0  0  0  0
 10 11  2  0  0  0  0
 10 21  1  0  0  0  0
 11 12  1  0  0  0  0
 11 13  1  0  0  0  0
 13 14  1  0  0  0  0
 13 19  2  0  0  0  0
 14 15  1  0  0  0  0
 15 16  2  0  0  0  0
 15 17  1  0  0  0  0
 17 18  1  0  0  0  0
 18 19  1  0  0  0  0
 18 25  1  0  0  0  0
 19 20  1  0  0  0  0
 20 21  2  0  0  0  0
 20 22  1  0  0  0  0
 22 23  1  0  0  0  0
 22 24  1  0  0  0  0
 23 24  1  0  0  0  0
 26 27  2  0  0  0  0
 26 32  1  0  0  0  0
 27 28  1  0  0  0  0
 28 29  1  0  0  0  0
 28 30  2  0  0  0  0
 30 31  1  0  0  0  0
 31 32  2  0  0  0  0
 31 42  1  0  0  0  0
 32 33  1  0  0  0  0
 33 34  2  0  0  0  0
 34 35  1  0  0  0  0
 34 41  1  0  0  0  0
 35 36  2  0  0  0  0
 35 37  1  0  0  0  0
 37 38  2  0  0  0  0
 39 37  1  1  0  0  0
 39 40  1  0  0  0  0
 39 44  1  0  0  0  0
 40 41  1  0  0  0  0
 41 42  2  0  0  0  0
 42 43  1  0  0  0  0
 44 45  1  6  0  0  0
 44 46  1  0  0  0  0
 44 47  1  0  0  0  0
 46 47  1  0  0  0  0
 47 48  2  0  0  0  0
 49 50  2  0  0  0  0
 49 51  1  0  0  0  0
 51 52  1  0  0  0  0
 51 54  1  0  0  0  0
 52 53  2  0  0  0  0
M  CHG  1  28   1
M  END
$$$$