
 OpenBabel11242000043D

 53 62  0  0  1  0  0  0  0  0999 V2000
    7.6696   -2.6004  -13.2501 O   0  0  0  0  0  0  0  0  0  0  0  0
    8.6366   -2.7100  -12.2844 C   0  0  0  0  0  0  0  0  0  0  0  0
    8.3428   -2.8726  -10.9892 C   0  0  0  0  0  0  0  0  0  0  0  0
    7.0260   -2.8995  -10.5635 O   0  0  0  0  0  0  0  0  0  0  0  0
    6.7955   -3.6053   -9.3590 C   0  0  2  0  0  0  0  0  0  0  0  0
    5.4174   -3.4704   -8.9377 O   0  0  0  0  0  0  0  0  0  0  0  0
    4.5020   -4.3661   -9.4664 C   0  0  0  0  0  0  0  0  0  0  0  0
    3.4563   -4.8272   -8.7344 C   0  0  0  0  0  0  0  0  0  0  0  0
    2.5410   -5.7254   -9.2749 O   0  0  0  0  0  0  0  0  0  0  0  0
    2.6123   -6.0919  -10.6050 C   0  0  0  0  0  0  0  0  0  0  0  0
    3.5930   -5.6644  -11.4140 C   0  0  0  0  0  0  0  0  0  0  0  0
    4.6542   -4.7318  -10.9320 C   0  0  0  0  0  0  0  0  0  0  0  0
    3.6301   -6.0961  -12.8598 C   0  0  3  0  0  0  0  0  0  0  0  0
    4.9092   -6.7537  -13.0950 N   0  0  0  0  0  0  0  0  0  0  0  0
    5.1191   -7.2541  -14.3365 C   0  0  0  0  0  0  0  0  0  0  0  0
    6.2516   -7.1706  -14.9319 N   0  0  0  0  0  0  0  0  0  0  0  0
    4.0789   -7.9251  -14.8705 N   0  0  0  0  0  0  0  0  0  0  0  0
    2.6980   -7.5546  -14.6532 C   0  0  0  0  0  0  0  0  0  0  0  0
    2.5483   -7.0751  -13.2416 C   0  0  0  0  0  0  0  0  0  0  0  0
    1.5906   -7.4469  -12.3604 C   0  0  0  0  0  0  0  0  0  0  0  0
    1.6349   -6.9314  -11.0704 N   0  0  0  0  0  0  0  0  0  0  0  0
    0.4907   -8.3848  -12.6648 C   0  0  0  0  0  0  0  0  0  0  0  0
    0.7268   -9.8132  -12.4914 N   0  0  0  0  0  0  0  0  0  0  0  0
   -0.1418   -9.1441  -11.5895 N   0  0  0  0  0  0  0  0  0  0  0  0
    3.1603   -4.4645   -7.3060 C   0  0  0  0  0  0  0  0  0  0  0  0
    4.2271   -4.2079   -6.4527 C   0  0  0  0  0  0  0  0  0  0  0  0
    4.0443   -3.8546   -5.1819 N   0  3  0  0  0  0  0  0  0  0  0  0
    5.1205   -3.5602   -4.4274 F   0  0  0  0  0  0  0  0  0  0  0  0
    2.8545   -3.7939   -4.6281 N   0  0  0  0  0  0  0  0  0  0  0  0
    1.7708   -4.0943   -5.3477 C   0  0  0  0  0  0  0  0  0  0  0  0
    1.8582   -4.4218   -6.7219 C   0  0  0  0  0  0  0  0  0  0  0  0
    0.6383   -4.6963   -7.3967 C   0  0  0  0  0  0  0  0  0  0  0  0
   -0.5882   -4.7533   -6.7231 C   0  0  0  0  0  0  0  0  0  0  0  0
   -0.6487   -4.4759   -5.3708 C   0  0  0  0  0  0  0  0  0  0  0  0
    0.5187   -4.0777   -4.6934 C   0  0  0  0  0  0  0  0  0  0  0  0
    0.4535   -3.8909   -3.2890 N   0  0  0  0  0  0  0  0  0  0  0  0
   -1.8116   -4.5198   -4.6394 O   0  0  0  0  0  0  0  0  0  0  0  0
   -2.9505   -5.1563   -5.2650 C   0  0  1  0  0  0  0  0  0  0  0  0
   -3.1142   -4.9428   -6.7070 C   0  0  0  0  0  0  0  0  0  0  0  0
   -4.1545   -4.6098   -7.2443 O   0  0  0  0  0  0  0  0  0  0  0  0
   -1.8124   -5.1193   -7.4484 C   0  0  0  0  0  0  0  0  0  0  0  0
   -1.7707   -5.5490   -8.5894 O   0  0  0  0  0  0  0  0  0  0  0  0
   -3.3138   -6.4280   -4.7918 O   0  0  0  0  0  0  0  0  0  0  0  0
   -4.2045   -5.3105   -4.4606 C   0  0  1  0  0  0  0  0  0  0  0  0
   -3.9693   -4.6196   -3.1620 O   0  0  0  0  0  0  0  0  0  0  0  0
   -4.8068   -5.6246   -3.2008 C   0  0  0  0  0  0  0  0  0  0  0  0
   -5.9523   -5.7561   -2.8185 O   0  0  0  0  0  0  0  0  0  0  0  0
    7.6123   -3.0487   -8.2064 C   0  0  0  0  0  0  0  0  0  0  0  0
    7.1982   -2.8987   -7.0607 O   0  0  0  0  0  0  0  0  0  0  0  0
    9.0497   -2.7901   -8.5785 C   0  0  0  0  0  0  0  0  0  0  0  0
    9.8508   -2.4839   -7.7111 O   0  0  0  0  0  0  0  0  0  0  0  0
    9.4744   -2.9437  -10.0235 C   0  0  0  0  0  0  0  0  0  0  0  0
   10.6352   -3.1478  -10.3309 O   0  0  0  0  0  0  0  0  0  0  0  0
  1  2  1  0  0  0  0
  2  3  2  0  0  0  0
  3  4  1  0  0  0  0
  3 52  1  0  0  0  0
  4  5  1  0  0  0  0
  5  6  1  1  0  0  0
  5 48  1  0  0  0  0
  6  7  1  0  0  0  0
  7  8  2  0  0  0  0
  7 12  1  0  0  0  0
  8  9  1  0  0  0  0
  8 25  1  0  0  0  0
  9 10  1  0  0  0  0
 10 11  2  0  0  0  0
 10 21  1  0  0  0  0
 11 12  1  0  0  0  0
 11 13  1  0  0  0  0
 13 14  1  0  0  0  0
 13 19  1  0  0  0  0
 14 15  1  0  0  0  0
 15 16  2  0  0  0  0
 15 17  1  0  0  0  0
 17 18  1  0  0  0  0
 18 19  1  0  0  0  0
 19 20  2  0  0  0  0
 20 21  1  0  0  0  0
 20 22  1  0  0  0  0
 22 23  1  0  0  0  0
 22 24  1  0  0  0  0
 23 24  1  0  0  0  0
 25 26  2  0  0  0  0
 25 31  1  0  0  0  0
 26 27  1  0  0  0  0
 27 28  1  0  0  0  0
 27 29  2  0  0  0  0
 29 30  1  0  0  0  0
 30 31  2  0  0  0  0
 30 35  1  0  0  0  0
 31 32  1  0  0  0  0
 32 33  2  0  0  0  0
 33 34  1  0  0  0  0
 33 41  1  0  0  0  0
 34 35  2  0  0  0  0
 34 37  1  0  0  0  0
 35 36  1  0  0  0  0
 38 37  1  1  0  0  0
 38 39  1  0  0  0  0
 38 43  1  0  0  0  0
 38 44  1  0  0  0  0
 39 40  2  0  0  0  0
 39 41  1  0  0  0  0
 41 42  2  0  0  0  0
 44 43  1  1  0  0  0
 44 45  1  0  0  0  0
 44 46  1  0  0  0  0
 45 46  1  0  0  0  0
 46 47  2  0  0  0  0
 48 49  2  0  0  0  0
 48 50  1  0  0  0  0
 50 51  2  0  0  0  0
 50 52  1  0  0  0  0
 52 53  2  0  0  0  0
M  CHG  1  27   1
M  END
$$$$