
 OpenBabel10232010043D

 80 93  0  0  1  0  0  0  0  0999 V2000
    1.9605   -0.5227   -3.6064 O   0  0  0  0  0  0  0  0  0  0  0  0
    1.8031   -0.3323   -2.1839 C   0  0  3  0  0  0  0  0  0  0  0  0
    2.6259    0.8640   -1.6668 C   0  0  3  0  0  0  0  0  0  0  0  0
    4.0279    0.6513   -1.9703 O   0  0  0  0  0  0  0  0  0  0  0  0
    4.5646   -0.5593   -1.6303 C   0  0  0  0  0  0  0  0  0  0  0  0
    3.7769   -1.6486   -1.2947 C   0  0  0  0  0  0  0  0  0  0  0  0
    2.2894   -1.6228   -1.5063 C   0  0  3  0  0  0  0  0  0  0  0  0
    1.9590   -2.7773   -2.3056 O   0  0  0  0  0  0  0  0  0  0  0  0
    4.4047   -2.7527   -0.7092 C   0  0  0  0  0  0  0  0  0  0  0  0
    5.7984   -2.8492   -0.4740 C   0  0  0  0  0  0  0  0  0  0  0  0
    6.6151   -1.8211   -1.0224 C   0  0  0  0  0  0  0  0  0  0  0  0
    5.9534   -0.6849   -1.5671 C   0  0  0  0  0  0  0  0  0  0  0  0
    6.6892    0.3793   -1.9499 F   0  0  0  0  0  0  0  0  0  0  0  0
    8.0071   -2.0224   -0.9468 C   0  0  0  0  0  0  0  0  0  0  0  0
    9.1375   -0.9549   -1.7071 Cl  0  0  0  0  0  0  0  0  0  0  0  0
    8.5875   -3.1250   -0.2714 C   0  0  0  0  0  0  0  0  0  0  0  0
    7.8296   -4.0740    0.4514 C   0  0  0  0  0  0  0  0  0  0  0  0
    6.4133   -3.9051    0.2957 C   0  0  0  0  0  0  0  0  0  0  0  0
    5.2686   -4.9739    1.1206 Cl  0  0  0  0  0  0  0  0  0  0  0  0
    8.5579   -5.1814    1.2406 C   0  0  0  0  0  0  0  0  0  0  0  0
    7.9627   -6.4484    1.4256 C   0  0  0  0  0  0  0  0  0  0  0  0
    8.5223   -7.6306    2.0340 C   0  0  0  0  0  0  0  0  0  0  0  0
    7.9119   -9.0115    2.3701 C   0  0  0  0  0  0  0  0  0  0  0  0
    8.7694   -9.9725    2.9446 C   0  0  0  0  0  0  0  0  0  0  0  0
    8.3781  -11.2530    3.3791 N   0  0  0  0  0  0  0  0  0  0  0  0
   10.0873   -9.5832    3.1852 C   0  0  0  0  0  0  0  0  0  0  0  0
   10.6004   -8.3858    2.9012 N   0  0  0  0  0  0  0  0  0  0  0  0
    9.8712   -7.4146    2.3717 N   0  3  0  0  0  0  0  0  0  0  0  0
   10.5001   -6.1829    2.2320 N   0  3  0  0  0  0  0  0  0  0  0  0
    9.8422   -5.0587    1.8205 C   0  0  0  0  0  0  0  0  0  0  0  0
   10.4857   -3.7214    2.1145 C   0  0  0  0  0  0  0  0  0  0  0  0
   12.1975   -6.0973    2.5686 Cl  0  0  0  0  0  0  0  0  0  0  0  0
    6.3341   -9.4830    2.0635 N   0  3  0  0  0  0  0  0  0  0  0  0
    5.5716  -10.4083    2.8669 N   0  3  0  0  0  0  0  0  0  0  0  0
    5.9630  -10.8066    4.5016 Cl  0  0  0  0  0  0  0  0  0  0  0  0
    4.2891  -10.8379    2.5155 C   0  0  0  0  0  0  0  0  0  0  0  0
    3.5384  -10.3679    1.4105 C   0  0  0  0  0  0  0  0  0  0  0  0
    4.2231   -9.4607    0.6202 C   0  0  0  0  0  0  0  0  0  0  0  0
    5.6287   -9.0481    0.9258 C   0  0  0  0  0  0  0  0  0  0  0  0
    6.2481   -8.2159   -0.0250 N   0  0  0  0  0  0  0  0  0  0  0  0
    3.5411   -8.9606   -0.4202 N   0  0  0  0  0  0  0  0  0  0  0  0
    2.2700   -9.2720   -0.7825 N   0  3  0  0  0  0  0  0  0  0  0  0
    1.5308  -10.2039   -0.0901 C   0  0  0  0  0  0  0  0  0  0  0  0
    2.1850  -10.7124    1.0597 N   0  3  0  0  0  0  0  0  0  0  0  0
    1.4696  -11.5461    1.8865 N   0  0  0  0  0  0  0  0  0  0  0  0
    0.1863  -11.9039    1.6165 N   0  3  0  0  0  0  0  0  0  0  0  0
   -0.5803  -12.7689    2.5855 C   0  0  0  0  0  0  0  0  0  0  0  0
   -0.3960  -11.5043    0.4765 C   0  0  0  0  0  0  0  0  0  0  0  0
    0.2635  -10.6806   -0.3698 N   0  3  0  0  0  0  0  0  0  0  0  0
   -0.5692  -10.3860   -1.8436 Cl  0  0  0  0  0  0  0  0  0  0  0  0
    1.6627   -8.2935   -2.0524 Cl  0  0  0  0  0  0  0  0  0  0  0  0
    2.3845    1.2463   -0.1533 C   0  0  3  0  0  0  0  0  0  0  0  0
    0.8978    1.6138    0.0649 C   0  0  0  0  0  0  0  0  0  0  0  0
    0.6062    2.1920    1.4477 C   0  0  0  0  0  0  0  0  0  0  0  0
    1.4998    3.3489    1.7752 C   0  0  0  0  0  0  0  0  0  0  0  0
    2.8057    3.3748    1.3169 C   0  0  0  0  0  0  0  0  0  0  0  0
    3.3430    2.3982    0.2859 C   0  0  3  0  0  0  0  0  0  0  0  0
    4.6975    1.8718    0.8173 C   0  0  3  0  0  0  0  0  0  0  0  0
    4.4745    0.9851    1.8395 F   0  0  0  0  0  0  0  0  0  0  0  0
    5.6739    2.9522    1.3007 C   0  0  0  0  0  0  0  0  0  0  0  0
    5.0795    4.3617    1.2019 C   0  0  3  0  0  0  0  0  0  0  0  0
    3.6970    4.3454    1.8236 C   0  0  0  0  0  0  0  0  0  0  0  0
    3.3153    5.2340    2.8582 C   0  0  0  0  0  0  0  0  0  0  0  0
    1.9310    5.3752    3.1555 C   0  0  0  0  0  0  0  0  0  0  0  0
    1.0628    4.3882    2.6146 C   0  0  0  0  0  0  0  0  0  0  0  0
    1.3508    6.4939    3.9761 C   0  0  0  0  0  0  0  0  0  0  0  0
    1.8853    7.8000    3.9513 C   0  0  0  0  0  0  0  0  0  0  0  0
    1.3704    8.8555    4.7312 C   0  0  0  0  0  0  0  0  0  0  0  0
    2.1862   10.1192    4.8954 C   0  0  0  0  0  0  0  0  0  0  0  0
    1.4136   11.2994    5.4834 C   0  0  0  0  0  0  0  0  0  0  0  0
    0.5057   10.8611    6.6277 C   0  0  0  0  0  0  0  0  0  0  0  0
   -0.4931    9.8148    6.1434 C   0  0  0  0  0  0  0  0  0  0  0  0
    0.1854    8.6633    5.4475 C   0  0  0  0  0  0  0  0  0  0  0  0
   -0.3905    7.3920    5.4631 C   0  0  0  0  0  0  0  0  0  0  0  0
    0.2163    6.3271    4.7899 C   0  0  0  0  0  0  0  0  0  0  0  0
   -0.3312    5.1114    4.9560 F   0  0  0  0  0  0  0  0  0  0  0  0
    4.4194    5.9308    3.6551 C   0  0  3  0  0  0  0  0  0  0  0  0
    5.8480    5.5145    3.2756 C   0  0  0  0  0  0  0  0  0  0  0  0
    5.9953    5.4417    1.7692 C   0  0  0  0  0  0  0  0  0  0  0  0
    4.2382    5.5611    5.4066 Cl  0  0  0  0  0  0  0  0  0  0  0  0
  1  2  1  0  0  0  0
  2  3  1  0  0  0  0
  2  7  1  0  0  0  0
  3  4  1  0  0  0  0
  3 52  1  0  0  0  0
  4  5  1  0  0  0  0
  5  6  2  0  0  0  0
  5 12  1  0  0  0  0
  6  7  1  0  0  0  0
  6  9  1  0  0  0  0
  7  8  1  0  0  0  0
  9 10  2  0  0  0  0
 10 11  1  0  0  0  0
 10 18  1  0  0  0  0
 11 12  2  0  0  0  0
 11 14  1  0  0  0  0
 12 13  1  0  0  0  0
 14 15  1  0  0  0  0
 14 16  2  0  0  0  0
 16 17  1  0  0  0  0
 17 18  2  0  0  0  0
 17 20  1  0  0  0  0
 18 19  1  0  0  0  0
 20 21  2  0  0  0  0
 20 30  1  0  0  0  0
 21 22  1  0  0  0  0
 22 23  2  0  0  0  0
 22 28  1  0  0  0  0
 23 24  1  0  0  0  0
 23 33  1  0  0  0  0
 24 25  1  0  0  0  0
 24 26  2  0  0  0  0
 26 27  1  0  0  0  0
 27 28  2  0  0  0  0
 28 29  1  0  0  0  0
 29 30  2  0  0  0  0
 29 32  1  0  0  0  0
 30 31  1  0  0  0  0
 33 34  2  0  0  0  0
 33 39  1  0  0  0  0
 34 35  1  0  0  0  0
 34 36  1  0  0  0  0
 36 37  2  0  0  0  0
 37 38  1  0  0  0  0
 37 44  1  0  0  0  0
 38 39  2  0  0  0  0
 38 41  1  0  0  0  0
 39 40  1  0  0  0  0
 41 42  2  0  0  0  0
 42 43  1  0  0  0  0
 42 51  1  0  0  0  0
 43 44  2  0  0  0  0
 43 49  1  0  0  0  0
 44 45  1  0  0  0  0
 45 46  2  0  0  0  0
 46 47  1  0  0  0  0
 46 48  1  0  0  0  0
 48 49  2  0  0  0  0
 49 50  1  0  0  0  0
 52 53  1  0  0  0  0
 52 57  1  0  0  0  0
 53 54  1  0  0  0  0
 54 55  1  0  0  0  0
 55 56  2  0  0  0  0
 55 65  1  0  0  0  0
 56 57  1  0  0  0  0
 56 62  1  0  0  0  0
 57 58  1  0  0  0  0
 58 59  1  0  0  0  0
 58 60  1  0  0  0  0
 60 61  1  0  0  0  0
 61 62  1  0  0  0  0
 61 79  1  0  0  0  0
 62 63  2  0  0  0  0
 63 64  1  0  0  0  0
 63 77  1  0  0  0  0
 64 65  2  0  0  0  0
 64 66  1  0  0  0  0
 66 67  2  0  0  0  0
 66 75  1  0  0  0  0
 67 68  1  0  0  0  0
 68 69  1  0  0  0  0
 68 73  2  0  0  0  0
 69 70  1  0  0  0  0
 70 71  1  0  0  0  0
 71 72  1  0  0  0  0
 72 73  1  0  0  0  0
 73 74  1  0  0  0  0
 74 75  2  0  0  0  0
 75 76  1  0  0  0  0
 77 78  1  0  0  0  0
 77 80  1  0  0  0  0
 78 79  1  0  0  0  0
M  CHG  8  28   1  29   1  33   1  34   1  42   1  44   1  46   1  49   1
M  END
$$$$