
 OpenBabel11242001133D

 53 62  0  0  1  0  0  0  0  0999 V2000
   -0.2227    0.8945   -8.4833 O   0  0  0  0  0  0  0  0  0  0  0  0
    1.1006    0.7731   -8.1417 C   0  0  0  0  0  0  0  0  0  0  0  0
    1.6190   -0.3518   -7.6311 C   0  0  0  0  0  0  0  0  0  0  0  0
    0.8196   -1.4583   -7.3927 O   0  0  0  0  0  0  0  0  0  0  0  0
    1.4687   -2.6967   -7.6306 C   0  0  2  0  0  0  0  0  0  0  0  0
    0.5865   -3.7850   -7.3242 O   0  0  0  0  0  0  0  0  0  0  0  0
    0.1824   -4.6480   -8.3263 C   0  0  0  0  0  0  0  0  0  0  0  0
   -0.1640   -5.9146   -8.0144 C   0  0  0  0  0  0  0  0  0  0  0  0
   -0.6467   -6.8220   -8.9411 O   0  0  0  0  0  0  0  0  0  0  0  0
   -0.7490   -6.4502  -10.2689 C   0  0  0  0  0  0  0  0  0  0  0  0
   -0.4332   -5.2146  -10.6889 C   0  0  0  0  0  0  0  0  0  0  0  0
    0.0386   -4.1452   -9.7501 C   0  0  0  0  0  0  0  0  0  0  0  0
   -0.5206   -4.9239  -12.1285 C   0  0  0  0  0  0  0  0  0  0  0  0
   -0.2293   -3.6625  -12.5066 N   0  0  0  0  0  0  0  0  0  0  0  0
   -0.2749   -3.4049  -13.8159 C   0  0  0  0  0  0  0  0  0  0  0  0
    0.0280   -2.1272  -14.2310 N   0  0  0  0  0  0  0  0  0  0  0  0
   -0.6150   -4.2908  -14.7540 N   0  0  0  0  0  0  0  0  0  0  0  0
   -0.8992   -5.5389  -14.3413 C   0  0  0  0  0  0  0  0  0  0  0  0
   -0.8514   -5.9282  -13.0224 C   0  0  0  0  0  0  0  0  0  0  0  0
   -1.0941   -7.3428  -12.5803 C   0  0  3  0  0  0  0  0  0  0  0  0
   -1.1768   -7.4268  -11.1254 N   0  0  0  0  0  0  0  0  0  0  0  0
    0.0165   -8.2363  -13.0613 C   0  0  0  0  0  0  0  0  0  0  0  0
   -0.1479   -9.6244  -12.7492 O   0  0  0  0  0  0  0  0  0  0  0  0
   -0.3341   -9.1484  -14.1020 O   0  0  0  0  0  0  0  0  0  0  0  0
   -0.0047   -6.5022   -6.6721 C   0  0  0  0  0  0  0  0  0  0  0  0
    1.2939   -6.6814   -6.2049 C   0  0  0  0  0  0  0  0  0  0  0  0
    1.5185   -7.2930   -5.0413 N   0  3  0  0  0  0  0  0  0  0  0  0
    2.7888   -7.4859   -4.6389 F   0  0  0  0  0  0  0  0  0  0  0  0
    0.5407   -7.7508   -4.2801 N   0  0  0  0  0  0  0  0  0  0  0  0
   -0.7312   -7.5963   -4.6680 C   0  0  0  0  0  0  0  0  0  0  0  0
   -1.0754   -6.9702   -5.8791 C   0  0  0  0  0  0  0  0  0  0  0  0
   -2.4525   -6.8509   -6.2143 C   0  0  0  0  0  0  0  0  0  0  0  0
   -3.4549   -7.3426   -5.3614 C   0  0  0  0  0  0  0  0  0  0  0  0
   -3.1092   -7.9637   -4.1757 C   0  0  0  0  0  0  0  0  0  0  0  0
   -1.7558   -8.0766   -3.8500 C   0  0  0  0  0  0  0  0  0  0  0  0
   -1.4226   -8.6775   -2.6957 F   0  0  0  0  0  0  0  0  0  0  0  0
   -4.0115   -8.4587   -3.2740 O   0  0  0  0  0  0  0  0  0  0  0  0
   -5.3901   -8.5539   -3.7032 C   0  0  1  0  0  0  0  0  0  0  0  0
   -5.8809   -7.5223   -4.6260 C   0  0  0  0  0  0  0  0  0  0  0  0
   -6.9585   -6.9645   -4.5227 O   0  0  0  0  0  0  0  0  0  0  0  0
   -4.8756   -7.1874   -5.7025 C   0  0  0  0  0  0  0  0  0  0  0  0
   -5.2230   -6.7934   -6.8027 O   0  0  0  0  0  0  0  0  0  0  0  0
   -5.9032   -9.8463   -3.9030 O   0  0  0  0  0  0  0  0  0  0  0  0
   -6.3934   -9.1098   -2.7334 C   0  0  1  0  0  0  0  0  0  0  0  0
   -5.6764   -9.3120   -1.4455 O   0  0  0  0  0  0  0  0  0  0  0  0
   -6.6905  -10.0873   -1.7299 C   0  0  0  0  0  0  0  0  0  0  0  0
   -7.6931  -10.3924   -1.1143 O   0  0  0  0  0  0  0  0  0  0  0  0
    2.6569   -2.8846   -6.7114 C   0  0  0  0  0  0  0  0  0  0  0  0
    2.9199   -3.9092   -6.0906 O   0  0  0  0  0  0  0  0  0  0  0  0
    3.5787   -1.6931   -6.7414 C   0  0  0  0  0  0  0  0  0  0  0  0
    4.7356   -1.8333   -6.3786 O   0  0  0  0  0  0  0  0  0  0  0  0
    3.0802   -0.3773   -7.3181 C   0  0  0  0  0  0  0  0  0  0  0  0
    3.8444    0.5430   -7.5517 O   0  0  0  0  0  0  0  0  0  0  0  0
  1  2  1  0  0  0  0
  2  3  2  0  0  0  0
  3  4  1  0  0  0  0
  3 52  1  0  0  0  0
  4  5  1  0  0  0  0
  5  6  1  1  0  0  0
  5 48  1  0  0  0  0
  6  7  1  0  0  0  0
  7  8  2  0  0  0  0
  7 12  1  0  0  0  0
  8  9  1  0  0  0  0
  8 25  1  0  0  0  0
  9 10  1  0  0  0  0
 10 11  2  0  0  0  0
 10 21  1  0  0  0  0
 11 12  1  0  0  0  0
 11 13  1  0  0  0  0
 13 14  2  0  0  0  0
 13 19  1  0  0  0  0
 14 15  1  0  0  0  0
 15 16  1  0  0  0  0
 15 17  2  0  0  0  0
 17 18  1  0  0  0  0
 18 19  2  0  0  0  0
 19 20  1  0  0  0  0
 20 21  1  0  0  0  0
 20 22  1  0  0  0  0
 22 23  1  0  0  0  0
 22 24  1  0  0  0  0
 23 24  1  0  0  0  0
 25 26  2  0  0  0  0
 25 31  1  0  0  0  0
 26 27  1  0  0  0  0
 27 28  1  0  0  0  0
 27 29  2  0  0  0  0
 29 30  1  0  0  0  0
 30 31  2  0  0  0  0
 30 35  1  0  0  0  0
 31 32  1  0  0  0  0
 32 33  2  0  0  0  0
 33 34  1  0  0  0  0
 33 41  1  0  0  0  0
 34 35  2  0  0  0  0
 34 37  1  0  0  0  0
 35 36  1  0  0  0  0
 38 37  1  1  0  0  0
 38 39  1  0  0  0  0
 38 43  1  0  0  0  0
 38 44  1  0  0  0  0
 39 40  2  0  0  0  0
 39 41  1  0  0  0  0
 41 42  2  0  0  0  0
 44 43  1  6  0  0  0
 44 45  1  0  0  0  0
 44 46  1  0  0  0  0
 45 46  1  0  0  0  0
 46 47  2  0  0  0  0
 48 49  2  0  0  0  0
 48 50  1  0  0  0  0
 50 51  2  0  0  0  0
 50 52  1  0  0  0  0
 52 53  2  0  0  0  0
M  CHG  1  27   1
M  END
$$$$