
 OpenBabel11212001493D

 53 61  0  0  1  0  0  0  0  0999 V2000
    0.0977    7.7973    0.8452 O   0  0  0  0  0  0  0  0  0  0  0  0
   -0.6012    6.8200    0.1804 C   0  0  0  0  0  0  0  0  0  0  0  0
   -0.1860    5.5490    0.1030 C   0  0  0  0  0  0  0  0  0  0  0  0
    1.0142    5.1510    0.6582 O   0  0  0  0  0  0  0  0  0  0  0  0
    0.9510    3.8656    1.2933 C   0  0  2  0  0  0  0  0  0  0  0  0
    2.0930    3.6344    2.1238 O   0  0  0  0  0  0  0  0  0  0  0  0
    2.1664    4.4296    3.2677 C   0  0  0  0  0  0  0  0  0  0  0  0
    2.7910    4.0018    4.3840 C   0  0  0  0  0  0  0  0  0  0  0  0
    2.8955    4.7700    5.5405 O   0  0  0  0  0  0  0  0  0  0  0  0
    2.2733    6.0035    5.5970 C   0  0  0  0  0  0  0  0  0  0  0  0
    1.6073    6.5169    4.5530 C   0  0  0  0  0  0  0  0  0  0  0  0
    1.5320    5.8030    3.2512 C   0  0  0  0  0  0  0  0  0  0  0  0
    0.9190    7.8557    4.6483 C   0  0  3  0  0  0  0  0  0  0  0  0
   -0.4688    7.6499    4.3772 O   0  0  0  0  0  0  0  0  0  0  0  0
   -1.4159    8.5447    4.7496 C   0  0  0  0  0  0  0  0  0  0  0  0
   -2.5785    8.4213    4.3853 O   0  0  0  0  0  0  0  0  0  0  0  0
   -1.0414    9.5613    5.5652 O   0  0  0  0  0  0  0  0  0  0  0  0
    0.2939    9.7632    6.0074 C   0  0  3  0  0  0  0  0  0  0  0  0
    1.0564    8.5022    5.9800 C   0  0  0  0  0  0  0  0  0  0  0  0
    1.7690    7.9409    6.9823 C   0  0  0  0  0  0  0  0  0  0  0  0
    2.3509    6.7007    6.7733 N   0  0  0  0  0  0  0  0  0  0  0  0
    1.9801    8.5508    8.3118 C   0  0  0  0  0  0  0  0  0  0  0  0
    3.1980    8.3584    9.0513 O   0  0  0  0  0  0  0  0  0  0  0  0
    2.8838    9.6513    8.4983 O   0  0  0  0  0  0  0  0  0  0  0  0
    0.9265   10.7032    5.1588 O   0  0  0  0  0  0  0  0  0  0  0  0
    3.3737    2.6625    4.5481 C   0  0  0  0  0  0  0  0  0  0  0  0
    4.7035    2.4650    4.2216 C   0  0  0  0  0  0  0  0  0  0  0  0
    5.3361    1.3079    4.4688 N   0  0  0  0  0  0  0  0  0  0  0  0
    4.6564    0.2889    5.0863 N   0  0  0  0  0  0  0  0  0  0  0  0
    3.3573    0.4061    5.4227 C   0  0  0  0  0  0  0  0  0  0  0  0
    2.6558    1.5945    5.1380 C   0  0  0  0  0  0  0  0  0  0  0  0
    1.2786    1.6725    5.4644 C   0  0  0  0  0  0  0  0  0  0  0  0
    0.6202    0.6116    6.0927 C   0  0  0  0  0  0  0  0  0  0  0  0
   -0.8190    0.6967    6.3700 C   0  0  0  0  0  0  0  0  0  0  0  0
   -1.4921    1.6481    6.0072 O   0  0  0  0  0  0  0  0  0  0  0  0
   -1.4342   -0.4734    7.1026 C   0  0  0  0  0  0  0  0  0  0  0  0
   -2.6441   -0.6493    7.1176 O   0  0  0  0  0  0  0  0  0  0  0  0
   -0.4357   -1.3397    7.8342 C   0  0  1  0  0  0  0  0  0  0  0  0
    0.7858   -1.5920    7.1255 O   0  0  0  0  0  0  0  0  0  0  0  0
    1.3209   -0.5287    6.4452 C   0  0  0  0  0  0  0  0  0  0  0  0
    2.6711   -0.6256    6.0849 C   0  0  0  0  0  0  0  0  0  0  0  0
    3.3545   -1.7750    6.4214 O   0  0  0  0  0  0  0  0  0  0  0  0
   -0.1506   -0.7869    9.1952 C   0  0  1  0  0  0  0  0  0  0  0  0
    0.3927    0.5544    9.2476 O   0  0  0  0  0  0  0  0  0  0  0  0
   -1.1367   -1.0967   10.1806 O   0  0  0  0  0  0  0  0  0  0  0  0
    0.0937   -1.6114   10.3796 C   0  0  0  0  0  0  0  0  0  0  0  0
    0.8607   -1.4429   11.2979 O   0  0  0  0  0  0  0  0  0  0  0  0
    0.8139    2.8619    0.1643 C   0  0  0  0  0  0  0  0  0  0  0  0
    1.5264    1.8933   -0.0452 O   0  0  0  0  0  0  0  0  0  0  0  0
   -0.3791    3.1776   -0.7154 C   0  0  0  0  0  0  0  0  0  0  0  0
   -0.8437    2.3263   -1.4564 O   0  0  0  0  0  0  0  0  0  0  0  0
   -1.0179    4.5565   -0.6293 C   0  0  0  0  0  0  0  0  0  0  0  0
   -2.1215    4.7948   -1.0882 O   0  0  0  0  0  0  0  0  0  0  0  0
  1  2  1  0  0  0  0
  2  3  2  0  0  0  0
  3  4  1  0  0  0  0
  3 52  1  0  0  0  0
  4  5  1  0  0  0  0
  5  6  1  6  0  0  0
  5 48  1  0  0  0  0
  6  7  1  0  0  0  0
  7  8  2  0  0  0  0
  7 12  1  0  0  0  0
  8  9  1  0  0  0  0
  8 26  1  0  0  0  0
  9 10  1  0  0  0  0
 10 11  2  0  0  0  0
 10 21  1  0  0  0  0
 11 12  1  0  0  0  0
 11 13  1  0  0  0  0
 13 14  1  0  0  0  0
 13 19  1  0  0  0  0
 14 15  1  0  0  0  0
 15 16  2  0  0  0  0
 15 17  1  0  0  0  0
 17 18  1  0  0  0  0
 18 19  1  0  0  0  0
 18 25  1  0  0  0  0
 19 20  2  0  0  0  0
 20 21  1  0  0  0  0
 20 22  1  0  0  0  0
 22 23  1  0  0  0  0
 22 24  1  0  0  0  0
 23 24  1  0  0  0  0
 26 27  2  0  0  0  0
 26 31  1  0  0  0  0
 27 28  1  0  0  0  0
 28 29  2  0  0  0  0
 29 30  1  0  0  0  0
 30 31  2  0  0  0  0
 30 41  1  0  0  0  0
 31 32  1  0  0  0  0
 32 33  2  0  0  0  0
 33 34  1  0  0  0  0
 33 40  1  0  0  0  0
 34 35  2  0  0  0  0
 34 36  1  0  0  0  0
 36 37  2  0  0  0  0
 38 36  1  6  0  0  0
 38 39  1  0  0  0  0
 38 43  1  0  0  0  0
 39 40  1  0  0  0  0
 40 41  2  0  0  0  0
 41 42  1  0  0  0  0
 43 44  1  1  0  0  0
 43 45  1  0  0  0  0
 43 46  1  0  0  0  0
 45 46  1  0  0  0  0
 46 47  2  0  0  0  0
 48 49  2  0  0  0  0
 48 50  1  0  0  0  0
 50 51  2  0  0  0  0
 50 52  1  0  0  0  0
 52 53  2  0  0  0  0
M  END
$$$$