
 OpenBabel09222023043D

 52 60  0  0  1  0  0  0  0  0999 V2000
    0.6844   -7.7310   -3.0799 O   0  0  0  0  0  0  0  0  0  0  0  0
    0.4943   -7.1705   -1.8400 C   0  0  0  0  0  0  0  0  0  0  0  0
    1.1248   -6.0620   -1.4279 C   0  0  0  0  0  0  0  0  0  0  0  0
    2.1071   -5.4492   -2.1804 O   0  0  0  0  0  0  0  0  0  0  0  0
    1.9432   -4.0258   -2.3011 C   0  0  2  0  0  0  0  0  0  0  0  0
    2.8738   -3.4520   -3.2476 O   0  0  0  0  0  0  0  0  0  0  0  0
    2.7133   -3.8156   -4.5857 C   0  0  0  0  0  0  0  0  0  0  0  0
    3.0868   -3.0229   -5.6172 C   0  0  0  0  0  0  0  0  0  0  0  0
    2.9292   -3.3955   -6.9531 O   0  0  0  0  0  0  0  0  0  0  0  0
    2.6674   -4.7100   -7.2615 C   0  0  0  0  0  0  0  0  0  0  0  0
    2.3281   -5.6331   -6.2981 C   0  0  0  0  0  0  0  0  0  0  0  0
    2.1590   -5.1848   -4.8881 C   0  0  0  0  0  0  0  0  0  0  0  0
    2.1916   -6.9635   -6.6994 C   0  0  0  0  0  0  0  0  0  0  0  0
    1.8627   -7.9656   -5.7732 N   0  0  0  0  0  0  0  0  0  0  0  0
    1.8219   -9.2955   -6.0475 C   0  0  0  0  0  0  0  0  0  0  0  0
    1.5248  -10.1210   -5.1888 O   0  0  0  0  0  0  0  0  0  0  0  0
    2.1409   -9.6720   -7.3083 N   0  0  0  0  0  0  0  0  0  0  0  0
    2.2769   -8.7671   -8.4198 C   0  0  0  0  0  0  0  0  0  0  0  0
    2.3987   -7.3258   -8.0316 C   0  0  0  0  0  0  0  0  0  0  0  0
    2.6835   -6.3190   -8.9674 C   0  0  0  0  0  0  0  0  0  0  0  0
    2.8171   -5.0245   -8.5621 N   0  0  0  0  0  0  0  0  0  0  0  0
    2.8612   -6.6083  -10.4475 C   0  0  0  0  0  0  0  0  0  0  0  0
    2.5005   -5.5762  -11.3800 O   0  0  0  0  0  0  0  0  0  0  0  0
    3.8900   -5.8893  -11.1448 O   0  0  0  0  0  0  0  0  0  0  0  0
    3.6239   -1.6463   -5.5167 C   0  0  0  0  0  0  0  0  0  0  0  0
    2.6539   -0.6919   -5.5057 N   0  0  0  0  0  0  0  0  0  0  0  0
    3.0424    0.5939   -5.6166 C   0  0  0  0  0  0  0  0  0  0  0  0
    4.3585    0.9953   -5.7410 C   0  0  0  0  0  0  0  0  0  0  0  0
    5.3601    0.0257   -5.7368 C   0  0  0  0  0  0  0  0  0  0  0  0
    5.0116   -1.3423   -5.6251 C   0  0  0  0  0  0  0  0  0  0  0  0
    6.0750   -2.2799   -5.6462 C   0  0  0  0  0  0  0  0  0  0  0  0
    7.4176   -1.8612   -5.7286 C   0  0  0  0  0  0  0  0  0  0  0  0
    7.7384   -0.5165   -5.8252 C   0  0  0  0  0  0  0  0  0  0  0  0
    6.7062    0.4183   -5.8512 C   0  0  0  0  0  0  0  0  0  0  0  0
    8.9936    0.0066   -5.9066 O   0  0  0  0  0  0  0  0  0  0  0  0
   10.1094   -0.8493   -5.6830 C   0  0  2  0  0  0  0  0  0  0  0  0
    9.9104   -2.3454   -5.8451 C   0  0  0  0  0  0  0  0  0  0  0  0
   10.8444   -3.1194   -5.9818 O   0  0  0  0  0  0  0  0  0  0  0  0
    8.4949   -2.8520   -5.7003 C   0  0  0  0  0  0  0  0  0  0  0  0
    8.2806   -4.0410   -5.5375 O   0  0  0  0  0  0  0  0  0  0  0  0
   10.7554   -0.4676   -4.3745 C   0  0  0  0  0  0  0  0  0  0  0  0
   11.9600   -1.2146   -3.9164 C   0  0  0  0  0  0  0  0  0  0  0  0
   13.1165   -1.3350   -4.2901 O   0  0  0  0  0  0  0  0  0  0  0  0
   11.3856   -1.7566   -2.8295 O   0  0  0  0  0  0  0  0  0  0  0  0
   10.2197   -1.1357   -3.1323 C   0  0  0  0  0  0  0  0  0  0  0  0
    9.1363   -1.2158   -2.5811 O   0  0  0  0  0  0  0  0  0  0  0  0
    2.1197   -3.3932   -0.9196 C   0  0  0  0  0  0  0  0  0  0  0  0
    2.4818   -2.2469   -0.6962 O   0  0  0  0  0  0  0  0  0  0  0  0
    1.6868   -4.3014    0.2197 C   0  0  0  0  0  0  0  0  0  0  0  0
    2.0667   -4.1124    1.3637 O   0  0  0  0  0  0  0  0  0  0  0  0
    0.8043   -5.4905   -0.0980 C   0  0  0  0  0  0  0  0  0  0  0  0
   -0.0911   -5.8692    0.6342 O   0  0  0  0  0  0  0  0  0  0  0  0
  1  2  1  0  0  0  0
  2  3  2  0  0  0  0
  3  4  1  0  0  0  0
  3 51  1  0  0  0  0
  4  5  1  0  0  0  0
  5  6  1  6  0  0  0
  5 47  1  0  0  0  0
  6  7  1  0  0  0  0
  7  8  2  0  0  0  0
  7 12  1  0  0  0  0
  8  9  1  0  0  0  0
  8 25  1  0  0  0  0
  9 10  1  0  0  0  0
 10 11  2  0  0  0  0
 10 21  1  0  0  0  0
 11 12  1  0  0  0  0
 11 13  1  0  0  0  0
 13 14  1  0  0  0  0
 13 19  2  0  0  0  0
 14 15  1  0  0  0  0
 15 16  2  0  0  0  0
 15 17  1  0  0  0  0
 17 18  1  0  0  0  0
 18 19  1  0  0  0  0
 19 20  1  0  0  0  0
 20 21  2  0  0  0  0
 20 22  1  0  0  0  0
 22 23  1  0  0  0  0
 22 24  1  0  0  0  0
 23 24  1  0  0  0  0
 25 26  2  0  0  0  0
 25 30  1  0  0  0  0
 26 27  1  0  0  0  0
 27 28  2  0  0  0  0
 28 29  1  0  0  0  0
 29 30  2  0  0  0  0
 29 34  1  0  0  0  0
 30 31  1  0  0  0  0
 31 32  2  0  0  0  0
 32 33  1  0  0  0  0
 32 39  1  0  0  0  0
 33 34  2  0  0  0  0
 33 35  1  0  0  0  0
 35 36  1  0  0  0  0
 36 37  1  0  0  0  0
 36 41  1  1  0  0  0
 37 38  2  0  0  0  0
 37 39  1  0  0  0  0
 39 40  2  0  0  0  0
 41 42  1  0  0  0  0
 41 45  1  0  0  0  0
 42 43  2  0  0  0  0
 42 44  1  0  0  0  0
 44 45  1  0  0  0  0
 45 46  2  0  0  0  0
 47 48  2  0  0  0  0
 47 49  1  0  0  0  0
 49 50  2  0  0  0  0
 49 51  1  0  0  0  0
 51 52  2  0  0  0  0
M  END
$$$$