
 OpenBabel11232003013D

 54 62  0  0  1  0  0  0  0  0999 V2000
    3.8207   -3.3142   -3.8773 O   0  0  0  0  0  0  0  0  0  0  0  0
    4.1397   -2.2599   -3.0573 C   0  0  0  0  0  0  0  0  0  0  0  0
    3.7651   -2.1856   -1.7725 C   0  0  0  0  0  0  0  0  0  0  0  0
    2.9570   -3.1497   -1.2048 O   0  0  0  0  0  0  0  0  0  0  0  0
    3.1064   -3.3767    0.2021 C   0  0  2  0  0  0  0  0  0  0  0  0
    2.2457   -4.4544    0.6621 O   0  0  0  0  0  0  0  0  0  0  0  0
    2.4332   -5.7347    0.1336 C   0  0  0  0  0  0  0  0  0  0  0  0
    2.0842   -6.8634    0.7997 C   0  0  0  0  0  0  0  0  0  0  0  0
    2.2406   -8.1529    0.2670 O   0  0  0  0  0  0  0  0  0  0  0  0
    2.8962   -8.3169   -0.9539 C   0  0  0  0  0  0  0  0  0  0  0  0
    3.3051   -7.2534   -1.6624 C   0  0  0  0  0  0  0  0  0  0  0  0
    3.0287   -5.8517   -1.2370 C   0  0  0  0  0  0  0  0  0  0  0  0
    4.0912   -7.3751   -2.9271 C   0  0  3  0  0  0  0  0  0  0  0  0
    5.4025   -6.9143   -2.6472 O   0  0  0  0  0  0  0  0  0  0  0  0
    6.3335   -7.0062   -3.6309 C   0  0  0  0  0  0  0  0  0  0  0  0
    7.3990   -6.4161   -3.5572 O   0  0  0  0  0  0  0  0  0  0  0  0
    6.0230   -7.8147   -4.6743 O   0  0  0  0  0  0  0  0  0  0  0  0
    4.9969   -8.8030   -4.6295 C   0  0  3  0  0  0  0  0  0  0  0  0
    4.2452   -8.7801   -3.3479 C   0  0  0  0  0  0  0  0  0  0  0  0
    3.7770   -9.8228   -2.6231 C   0  0  0  0  0  0  0  0  0  0  0  0
    3.1312   -9.5981   -1.4055 O   0  3  0  0  0  0  0  0  0  0  0  0
    3.8891  -11.2194   -3.0745 C   0  0  3  0  0  0  0  0  0  0  0  0
    2.8153  -11.7467   -3.8355 N   0  0  0  0  0  0  0  0  0  0  0  0
    2.8847  -12.1322   -2.6543 N   0  0  0  0  0  0  0  0  0  0  0  0
    4.0534   -8.5233   -5.6411 O   0  0  0  0  0  0  0  0  0  0  0  0
    1.6144   -6.8445    2.2018 C   0  0  0  0  0  0  0  0  0  0  0  0
    2.6323   -6.9498    3.0870 N   0  0  0  0  0  0  0  0  0  0  0  0
    2.3213   -6.7915    4.3851 C   0  0  0  0  0  0  0  0  0  0  0  0
    3.3193   -6.9016    5.2725 F   0  0  0  0  0  0  0  0  0  0  0  0
    1.0493   -6.5289    4.8553 C   0  0  0  0  0  0  0  0  0  0  0  0
   -0.0272   -6.4686    3.9537 C   0  0  0  0  0  0  0  0  0  0  0  0
    0.2592   -6.6806    2.5786 C   0  0  0  0  0  0  0  0  0  0  0  0
   -0.8134   -6.7148    1.6656 C   0  0  0  0  0  0  0  0  0  0  0  0
   -2.1254   -6.4800    2.0875 C   0  0  0  0  0  0  0  0  0  0  0  0
   -3.2271   -6.5817    1.1260 C   0  0  0  0  0  0  0  0  0  0  0  0
   -3.0362   -6.8945   -0.0391 O   0  0  0  0  0  0  0  0  0  0  0  0
   -4.6117   -6.3108    1.6619 C   0  0  0  0  0  0  0  0  0  0  0  0
   -5.5979   -6.7717    1.1071 O   0  0  0  0  0  0  0  0  0  0  0  0
   -4.6303   -5.4391    2.8909 C   0  0  1  0  0  0  0  0  0  0  0  0
   -3.6522   -5.8248    3.8688 O   0  0  0  0  0  0  0  0  0  0  0  0
   -2.4005   -6.1559    3.4079 C   0  0  0  0  0  0  0  0  0  0  0  0
   -1.3668   -6.1962    4.3663 C   0  0  0  0  0  0  0  0  0  0  0  0
   -1.6542   -5.7264    5.6666 N   0  0  0  0  0  0  0  0  0  0  0  0
   -4.5093   -3.9794    2.5489 C   0  0  1  0  0  0  0  0  0  0  0  0
   -3.3281   -3.5733    1.8223 O   0  0  0  0  0  0  0  0  0  0  0  0
   -5.7079   -3.3439    2.0989 O   0  0  0  0  0  0  0  0  0  0  0  0
   -5.2326   -2.9658    3.2904 C   0  0  0  0  0  0  0  0  0  0  0  0
   -5.7658   -2.9615    4.3919 O   0  0  0  0  0  0  0  0  0  0  0  0
    2.7974   -2.0738    0.9352 C   0  0  0  0  0  0  0  0  0  0  0  0
    2.0653   -1.9533    1.9062 O   0  0  0  0  0  0  0  0  0  0  0  0
    3.5220   -0.8748    0.3552 C   0  0  0  0  0  0  0  0  0  0  0  0
    3.5986    0.1668    0.9879 O   0  0  0  0  0  0  0  0  0  0  0  0
    4.1525   -0.9671   -1.0168 C   0  0  0  0  0  0  0  0  0  0  0  0
    4.9076   -0.1108   -1.4455 O   0  0  0  0  0  0  0  0  0  0  0  0
  1  2  1  0  0  0  0
  2  3  2  0  0  0  0
  3  4  1  0  0  0  0
  3 53  1  0  0  0  0
  4  5  1  0  0  0  0
  5  6  1  1  0  0  0
  5 49  1  0  0  0  0
  6  7  1  0  0  0  0
  7  8  2  0  0  0  0
  7 12  1  0  0  0  0
  8  9  1  0  0  0  0
  8 26  1  0  0  0  0
  9 10  1  0  0  0  0
 10 11  2  0  0  0  0
 10 21  1  0  0  0  0
 11 12  1  0  0  0  0
 11 13  1  0  0  0  0
 13 14  1  0  0  0  0
 13 19  1  0  0  0  0
 14 15  1  0  0  0  0
 15 16  2  0  0  0  0
 15 17  1  0  0  0  0
 17 18  1  0  0  0  0
 18 19  1  0  0  0  0
 18 25  1  0  0  0  0
 19 20  2  0  0  0  0
 20 21  1  0  0  0  0
 20 22  1  0  0  0  0
 22 23  1  0  0  0  0
 22 24  1  0  0  0  0
 23 24  2  0  0  0  0
 26 27  2  0  0  0  0
 26 32  1  0  0  0  0
 27 28  1  0  0  0  0
 28 29  1  0  0  0  0
 28 30  2  0  0  0  0
 30 31  1  0  0  0  0
 31 32  2  0  0  0  0
 31 42  1  0  0  0  0
 32 33  1  0  0  0  0
 33 34  2  0  0  0  0
 34 35  1  0  0  0  0
 34 41  1  0  0  0  0
 35 36  2  0  0  0  0
 35 37  1  0  0  0  0
 37 38  2  0  0  0  0
 39 37  1  6  0  0  0
 39 40  1  0  0  0  0
 39 44  1  0  0  0  0
 40 41  1  0  0  0  0
 41 42  2  0  0  0  0
 42 43  1  0  0  0  0
 44 45  1  6  0  0  0
 44 46  1  0  0  0  0
 44 47  1  0  0  0  0
 46 47  1  0  0  0  0
 47 48  2  0  0  0  0
 49 50  2  0  0  0  0
 49 51  1  0  0  0  0
 51 52  2  0  0  0  0
 51 53  1  0  0  0  0
 53 54  2  0  0  0  0
M  CHG  1  21   1
M  END
$$$$