
 OpenBabel11212021103D

 53 61  0  0  1  0  0  0  0  0999 V2000
    1.4873   -2.1027    6.5678 O   0  0  0  0  0  0  0  0  0  0  0  0
    1.3371   -2.4243    5.2444 C   0  0  0  0  0  0  0  0  0  0  0  0
    1.2414   -1.4990    4.2804 C   0  0  0  0  0  0  0  0  0  0  0  0
    1.2630   -0.1446    4.5698 O   0  0  0  0  0  0  0  0  0  0  0  0
    1.9767    0.6239    3.6087 C   0  0  2  0  0  0  0  0  0  0  0  0
    1.9514    2.0336    3.9026 O   0  0  0  0  0  0  0  0  0  0  0  0
    2.4806    2.5437    5.0713 C   0  0  0  0  0  0  0  0  0  0  0  0
    2.3944    3.8707    5.3004 C   0  0  0  0  0  0  0  0  0  0  0  0
    2.8519    4.4868    6.4558 O   0  0  0  0  0  0  0  0  0  0  0  0
    3.4352    3.7117    7.4474 C   0  0  0  0  0  0  0  0  0  0  0  0
    3.6029    2.3880    7.2958 C   0  0  0  0  0  0  0  0  0  0  0  0
    3.1436    1.6377    6.0849 C   0  0  0  0  0  0  0  0  0  0  0  0
    4.2372    1.6341    8.4148 C   0  0  0  0  0  0  0  0  0  0  0  0
    4.4815    0.3714    8.3005 N   0  0  0  0  0  0  0  0  0  0  0  0
    5.0602   -0.3001    9.3611 C   0  0  0  0  0  0  0  0  0  0  0  0
    5.3311   -1.4839    9.2092 O   0  0  0  0  0  0  0  0  0  0  0  0
    5.3401    0.2941   10.5765 N   0  0  0  0  0  0  0  0  0  0  0  0
    5.1058    1.5523   10.7203 C   0  0  0  0  0  0  0  0  0  0  0  0
    4.5561    2.3836    9.6500 C   0  0  0  0  0  0  0  0  0  0  0  0
    4.3252    3.7096    9.7105 C   0  0  0  0  0  0  0  0  0  0  0  0
    3.8163    4.3611    8.5943 N   0  0  0  0  0  0  0  0  0  0  0  0
    4.5637    4.5564   10.9028 C   0  0  0  0  0  0  0  0  0  0  0  0
    3.7523    5.7126   11.1777 O   0  0  0  0  0  0  0  0  0  0  0  0
    3.6622    4.5475   12.0202 O   0  0  0  0  0  0  0  0  0  0  0  0
    1.7952    4.8051    4.3316 C   0  0  0  0  0  0  0  0  0  0  0  0
    0.4681    5.0013    4.4906 N   0  0  0  0  0  0  0  0  0  0  0  0
   -0.1372    5.8754    3.7005 N   0  3  0  0  0  0  0  0  0  0  0  0
   -1.4614    6.0637    3.8555 F   0  0  0  0  0  0  0  0  0  0  0  0
    0.5155    6.5951    2.7815 C   0  0  0  0  0  0  0  0  0  0  0  0
    1.8843    6.4375    2.5919 C   0  0  0  0  0  0  0  0  0  0  0  0
    2.5630    5.4891    3.3697 C   0  0  0  0  0  0  0  0  0  0  0  0
    3.9498    5.3172    3.1422 C   0  0  0  0  0  0  0  0  0  0  0  0
    4.6334    6.1314    2.2262 C   0  0  0  0  0  0  0  0  0  0  0  0
    6.0739    5.9744    2.0382 C   0  0  0  0  0  0  0  0  0  0  0  0
    6.6439    4.9417    2.3466 O   0  0  0  0  0  0  0  0  0  0  0  0
    6.8241    7.1805    1.5309 C   0  0  0  0  0  0  0  0  0  0  0  0
    8.0289    7.2912    1.7254 O   0  0  0  0  0  0  0  0  0  0  0  0
    5.9659    8.3072    0.9914 C   0  0  1  0  0  0  0  0  0  0  0  0
    4.5987    7.9972    0.6825 O   0  0  0  0  0  0  0  0  0  0  0  0
    3.9717    7.1152    1.5140 C   0  0  0  0  0  0  0  0  0  0  0  0
    2.5911    7.2281    1.6694 C   0  0  0  0  0  0  0  0  0  0  0  0
    1.9181    8.1543    0.9682 F   0  0  0  0  0  0  0  0  0  0  0  0
    6.1153    9.5033    1.9087 C   0  0  1  0  0  0  0  0  0  0  0  0
    7.4414   10.0673    2.0257 O   0  0  0  0  0  0  0  0  0  0  0  0
    5.0394   10.4512    1.8976 O   0  0  0  0  0  0  0  0  0  0  0  0
    5.2224    9.7548    3.0300 C   0  0  0  0  0  0  0  0  0  0  0  0
    4.4799    9.0162    3.6482 O   0  0  0  0  0  0  0  0  0  0  0  0
    1.2965    0.5459    2.2484 C   0  0  0  0  0  0  0  0  0  0  0  0
    1.1599    1.4815    1.4685 O   0  0  0  0  0  0  0  0  0  0  0  0
    0.7734   -0.8302    1.9210 C   0  0  0  0  0  0  0  0  0  0  0  0
    0.0928   -1.0088    0.9246 O   0  0  0  0  0  0  0  0  0  0  0  0
    1.0605   -1.9638    2.8787 C   0  0  0  0  0  0  0  0  0  0  0  0
    1.1627   -3.1170    2.5026 O   0  0  0  0  0  0  0  0  0  0  0  0
  1  2  1  0  0  0  0
  2  3  2  0  0  0  0
  3  4  1  0  0  0  0
  3 52  1  0  0  0  0
  4  5  1  0  0  0  0
  5  6  1  1  0  0  0
  5 48  1  0  0  0  0
  6  7  1  0  0  0  0
  7  8  2  0  0  0  0
  7 12  1  0  0  0  0
  8  9  1  0  0  0  0
  8 25  1  0  0  0  0
  9 10  1  0  0  0  0
 10 11  2  0  0  0  0
 10 21  1  0  0  0  0
 11 12  1  0  0  0  0
 11 13  1  0  0  0  0
 13 14  2  0  0  0  0
 13 19  1  0  0  0  0
 14 15  1  0  0  0  0
 15 16  2  0  0  0  0
 15 17  1  0  0  0  0
 17 18  2  0  0  0  0
 18 19  1  0  0  0  0
 19 20  2  0  0  0  0
 20 21  1  0  0  0  0
 20 22  1  0  0  0  0
 22 23  1  0  0  0  0
 22 24  1  0  0  0  0
 23 24  1  0  0  0  0
 25 26  2  0  0  0  0
 25 31  1  0  0  0  0
 26 27  1  0  0  0  0
 27 28  1  0  0  0  0
 27 29  2  0  0  0  0
 29 30  1  0  0  0  0
 30 31  2  0  0  0  0
 30 41  1  0  0  0  0
 31 32  1  0  0  0  0
 32 33  2  0  0  0  0
 33 34  1  0  0  0  0
 33 40  1  0  0  0  0
 34 35  2  0  0  0  0
 34 36  1  0  0  0  0
 36 37  2  0  0  0  0
 38 36  1  1  0  0  0
 38 39  1  0  0  0  0
 38 43  1  0  0  0  0
 39 40  1  0  0  0  0
 40 41  2  0  0  0  0
 41 42  1  0  0  0  0
 43 44  1  1  0  0  0
 43 45  1  0  0  0  0
 43 46  1  0  0  0  0
 45 46  1  0  0  0  0
 46 47  2  0  0  0  0
 48 49  2  0  0  0  0
 48 50  1  0  0  0  0
 50 51  2  0  0  0  0
 50 52  1  0  0  0  0
 52 53  2  0  0  0  0
M  CHG  1  27   1
M  END
$$$$