
 OpenBabel10242016123D

 93108  0  0  1  0  0  0  0  0999 V2000
    6.7353    5.8686   -0.7846 F   0  0  0  0  0  0  0  0  0  0  0  0
    6.1251    6.3101    0.3495 C   0  0  3  0  0  0  0  0  0  0  0  0
    7.0352    7.4264    0.8871 C   0  0  0  0  0  0  0  0  0  0  0  0
    6.3697    8.8134    0.7870 C   0  0  3  0  0  0  0  0  0  0  0  0
    7.3509    9.9122    1.1924 C   0  0  0  0  0  0  0  0  0  0  0  0
    7.1391   10.4066    2.6108 C   0  0  0  0  0  0  0  0  0  0  0  0
    5.6710   10.7173    2.9026 C   0  0  3  0  0  0  0  0  0  0  0  0
    4.7895    9.4943    2.7285 C   0  0  0  0  0  0  0  0  0  0  0  0
    5.0699    8.6967    1.5826 C   0  0  0  0  0  0  0  0  0  0  0  0
    4.2561    7.6010    1.2199 C   0  0  0  0  0  0  0  0  0  0  0  0
    4.6908    6.7925    0.0057 C   0  0  3  0  0  0  0  0  0  0  0  0
    3.7361    5.6643   -0.4931 C   0  0  3  0  0  0  0  0  0  0  0  0
    2.3522    5.7508    0.2065 C   0  0  0  0  0  0  0  0  0  0  0  0
    2.4585    5.9579    1.7261 C   0  0  0  0  0  0  0  0  0  0  0  0
    3.2121    7.2220    2.0473 C   0  0  0  0  0  0  0  0  0  0  0  0
    2.9849    7.9549    3.2355 C   0  0  0  0  0  0  0  0  0  0  0  0
    3.7431    9.1044    3.6224 C   0  0  0  0  0  0  0  0  0  0  0  0
    3.4450    9.7481    4.9655 C   0  0  0  0  0  0  0  0  0  0  0  0
    3.0838    8.9694    6.0986 C   0  0  0  0  0  0  0  0  0  0  0  0
    2.7721    9.5268    7.3753 C   0  0  0  0  0  0  0  0  0  0  0  0
    2.2650    8.6208    8.5022 C   0  0  3  0  0  0  0  0  0  0  0  0
    0.8480    8.1173    8.1594 C   0  0  0  0  0  0  0  0  0  0  0  0
    0.2422    7.2599    9.2651 C   0  0  0  0  0  0  0  0  0  0  0  0
    0.2012    8.0002   10.6068 C   0  0  3  0  0  0  0  0  0  0  0  0
    1.6318    8.4301   11.0049 C   0  0  3  0  0  0  0  0  0  0  0  0
    2.3132    9.2956    9.9043 C   0  0  3  0  0  0  0  0  0  0  0  0
    1.7529   10.7252    9.8168 C   0  0  0  0  0  0  0  0  0  0  0  0
    2.5965   11.5983    8.8784 C   0  0  3  0  0  0  0  0  0  0  0  0
    2.8841   10.9120    7.5579 C   0  0  0  0  0  0  0  0  0  0  0  0
    3.2571   11.6960    6.4644 C   0  0  0  0  0  0  0  0  0  0  0  0
    3.4726   11.1300    5.2041 C   0  0  0  0  0  0  0  0  0  0  0  0
    3.6741   12.0003    4.2074 F   0  0  0  0  0  0  0  0  0  0  0  0
    3.8937   12.0602    9.5576 C   0  0  0  0  0  0  0  0  0  0  0  0
    1.6702    9.1153   12.3790 C   0  0  0  0  0  0  0  0  0  0  0  0
   -0.4677    7.1113   11.6611 C   0  0  0  0  0  0  0  0  0  0  0  0
    3.5621    5.6554   -2.0825 C   0  0  3  0  0  0  0  0  0  0  0  0
    2.9462    6.8999   -2.5282 O   0  0  0  0  0  0  0  0  0  0  0  0
    3.4494    7.6234   -3.5619 C   0  0  0  0  0  0  0  0  0  0  0  0
    4.6690    7.3595   -4.1183 C   0  0  0  0  0  0  0  0  0  0  0  0
    5.2724    5.9717   -4.0233 C   0  0  3  0  0  0  0  0  0  0  0  0
    4.8279    5.1099   -2.8315 C   0  0  3  0  0  0  0  0  0  0  0  0
    4.5377    3.7480   -3.2401 O   0  0  0  0  0  0  0  0  0  0  0  0
    5.5019    2.7674   -3.2356 C   0  0  0  0  0  0  0  0  0  0  0  0
    6.8742    2.9238   -3.4421 C   0  0  0  0  0  0  0  0  0  0  0  0
    7.6949    1.7909   -3.6319 C   0  0  0  0  0  0  0  0  0  0  0  0
    7.1636    0.5026   -3.5653 C   0  0  0  0  0  0  0  0  0  0  0  0
    5.8169    0.3401   -3.2674 C   0  0  0  0  0  0  0  0  0  0  0  0
    4.9955    1.4648   -3.1181 C   0  0  0  0  0  0  0  0  0  0  0  0
    4.8811    5.4335   -5.2950 O   0  0  0  0  0  0  0  0  0  0  0  0
    5.2102    8.2791   -5.0450 C   0  0  0  0  0  0  0  0  0  0  0  0
    4.4771    9.3526   -5.6130 C   0  0  0  0  0  0  0  0  0  0  0  0
    3.1342    9.4790   -5.2300 C   0  0  0  0  0  0  0  0  0  0  0  0
    2.6883    8.6809   -4.1162 C   0  0  0  0  0  0  0  0  0  0  0  0
    1.4513    8.8926   -3.6503 F   0  0  0  0  0  0  0  0  0  0  0  0
    2.3715   10.3750   -6.0372 C   0  0  0  0  0  0  0  0  0  0  0  0
    0.7099   10.6789   -5.7636 Cl  0  0  0  0  0  0  0  0  0  0  0  0
    2.9068   11.0469   -7.1451 C   0  0  0  0  0  0  0  0  0  0  0  0
    4.2735   11.0095   -7.5111 C   0  0  0  0  0  0  0  0  0  0  0  0
    5.0675   10.2501   -6.5860 C   0  0  0  0  0  0  0  0  0  0  0  0
    6.7740   10.5490   -6.5018 Cl  0  0  0  0  0  0  0  0  0  0  0  0
    4.8349   11.7601   -8.7344 C   0  0  0  0  0  0  0  0  0  0  0  0
    4.2160   12.9762   -9.1717 C   0  0  0  0  0  0  0  0  0  0  0  0
    4.5466   13.6889  -10.4142 C   0  0  0  0  0  0  0  0  0  0  0  0
    3.8681   14.8270  -11.2079 C   0  0  0  0  0  0  0  0  0  0  0  0
    4.4204   15.2680  -12.4222 C   0  0  0  0  0  0  0  0  0  0  0  0
    3.6609   16.0175  -13.3631 N   0  0  0  0  0  0  0  0  0  0  0  0
    5.6482   14.7358  -12.7636 C   0  0  0  0  0  0  0  0  0  0  0  0
    6.2803   13.7969  -12.0545 N   0  0  0  0  0  0  0  0  0  0  0  0
    5.7524   13.2171  -10.9729 N   0  3  0  0  0  0  0  0  0  0  0  0
    6.4296   12.1149  -10.4902 N   0  3  0  0  0  0  0  0  0  0  0  0
    5.9012   11.2883   -9.5480 C   0  0  0  0  0  0  0  0  0  0  0  0
    6.4603    9.8809   -9.4936 C   0  0  0  0  0  0  0  0  0  0  0  0
    7.9992   11.7761  -11.1395 Cl  0  0  0  0  0  0  0  0  0  0  0  0
    2.4783   15.5319  -10.8916 N   0  3  0  0  0  0  0  0  0  0  0  0
    2.2174   16.8948  -11.1991 N   0  3  0  0  0  0  0  0  0  0  0  0
    3.4950   18.0645  -11.2615 Cl  0  0  0  0  0  0  0  0  0  0  0  0
    0.9300   17.4189  -11.2365 C   0  0  0  0  0  0  0  0  0  0  0  0
   -0.2185   16.7259  -10.7613 C   0  0  0  0  0  0  0  0  0  0  0  0
    0.0487   15.4488  -10.2767 C   0  0  0  0  0  0  0  0  0  0  0  0
    1.3770   14.8153  -10.4543 C   0  0  0  0  0  0  0  0  0  0  0  0
    1.4968   13.4232  -10.2984 N   0  0  0  0  0  0  0  0  0  0  0  0
   -0.9574   14.8281   -9.6546 N   0  0  0  0  0  0  0  0  0  0  0  0
   -2.1864   15.3465   -9.4059 N   0  3  0  0  0  0  0  0  0  0  0  0
   -2.5904   16.5401   -9.9635 C   0  0  0  0  0  0  0  0  0  0  0  0
   -1.5773   17.1969  -10.7099 N   0  3  0  0  0  0  0  0  0  0  0  0
   -1.9426   18.2888  -11.4651 N   0  0  0  0  0  0  0  0  0  0  0  0
   -3.2287   18.7348  -11.5043 N   0  3  0  0  0  0  0  0  0  0  0  0
   -3.6369   19.8180  -12.4723 C   0  0  0  0  0  0  0  0  0  0  0  0
   -4.1475   18.2028  -10.6852 C   0  0  0  0  0  0  0  0  0  0  0  0
   -3.8337   17.1400   -9.9109 N   0  3  0  0  0  0  0  0  0  0  0  0
   -5.1011   16.6471   -8.8628 Cl  0  0  0  0  0  0  0  0  0  0  0  0
   -3.1606   14.3298   -8.4319 Cl  0  0  0  0  0  0  0  0  0  0  0  0
    5.0846   11.9982    1.7504 Cl  0  0  0  0  0  0  0  0  0  0  0  0
  1  2  1  0  0  0  0
  2  3  1  0  0  0  0
  2 11  1  0  0  0  0
  3  4  1  0  0  0  0
  4  5  1  0  0  0  0
  4  9  1  0  0  0  0
  5  6  1  0  0  0  0
  6  7  1  0  0  0  0
  7  8  1  0  0  0  0
  7 93  1  0  0  0  0
  8  9  2  0  0  0  0
  8 17  1  0  0  0  0
  9 10  1  0  0  0  0
 10 11  1  0  0  0  0
 10 15  2  0  0  0  0
 11 12  1  0  0  0  0
 12 13  1  0  0  0  0
 12 36  1  0  0  0  0
 13 14  1  0  0  0  0
 14 15  1  0  0  0  0
 15 16  1  0  0  0  0
 16 17  2  0  0  0  0
 17 18  1  0  0  0  0
 18 19  2  0  0  0  0
 18 31  1  0  0  0  0
 19 20  1  0  0  0  0
 20 21  1  0  0  0  0
 20 29  2  0  0  0  0
 21 22  1  0  0  0  0
 21 26  1  0  0  0  0
 22 23  1  0  0  0  0
 23 24  1  0  0  0  0
 24 25  1  0  0  0  0
 24 35  1  0  0  0  0
 25 26  1  0  0  0  0
 25 34  1  0  0  0  0
 26 27  1  0  0  0  0
 27 28  1  0  0  0  0
 28 29  1  0  0  0  0
 28 33  1  0  0  0  0
 29 30  1  0  0  0  0
 30 31  2  0  0  0  0
 31 32  1  0  0  0  0
 36 37  1  0  0  0  0
 36 41  1  0  0  0  0
 37 38  1  0  0  0  0
 38 39  2  0  0  0  0
 38 53  1  0  0  0  0
 39 40  1  0  0  0  0
 39 50  1  0  0  0  0
 40 41  1  0  0  0  0
 40 49  1  0  0  0  0
 41 42  1  0  0  0  0
 42 43  1  0  0  0  0
 43 44  2  0  0  0  0
 43 48  1  0  0  0  0
 44 45  1  0  0  0  0
 45 46  2  0  0  0  0
 46 47  1  0  0  0  0
 47 48  2  0  0  0  0
 50 51  2  0  0  0  0
 51 52  1  0  0  0  0
 51 59  1  0  0  0  0
 52 53  2  0  0  0  0
 52 55  1  0  0  0  0
 53 54  1  0  0  0  0
 55 56  1  0  0  0  0
 55 57  2  0  0  0  0
 57 58  1  0  0  0  0
 58 59  2  0  0  0  0
 58 61  1  0  0  0  0
 59 60  1  0  0  0  0
 61 62  2  0  0  0  0
 61 71  1  0  0  0  0
 62 63  1  0  0  0  0
 63 64  2  0  0  0  0
 63 69  1  0  0  0  0
 64 65  1  0  0  0  0
 64 74  1  0  0  0  0
 65 66  1  0  0  0  0
 65 67  2  0  0  0  0
 67 68  1  0  0  0  0
 68 69  2  0  0  0  0
 69 70  1  0  0  0  0
 70 71  2  0  0  0  0
 70 73  1  0  0  0  0
 71 72  1  0  0  0  0
 74 75  2  0  0  0  0
 74 80  1  0  0  0  0
 75 76  1  0  0  0  0
 75 77  1  0  0  0  0
 77 78  2  0  0  0  0
 78 79  1  0  0  0  0
 78 85  1  0  0  0  0
 79 80  2  0  0  0  0
 79 82  1  0  0  0  0
 80 81  1  0  0  0  0
 82 83  2  0  0  0  0
 83 84  1  0  0  0  0
 83 92  1  0  0  0  0
 84 85  2  0  0  0  0
 84 90  1  0  0  0  0
 85 86  1  0  0  0  0
 86 87  2  0  0  0  0
 87 88  1  0  0  0  0
 87 89  1  0  0  0  0
 89 90  2  0  0  0  0
 90 91  1  0  0  0  0
M  CHG  8  69   1  70   1  74   1  75   1  83   1  85   1  87   1  90   1
M  END
$$$$