
 OpenBabel11262012093D

 53 61  0  0  1  0  0  0  0  0999 V2000
   -2.7264   -0.8176   -3.9636 F   0  0  0  0  0  0  0  0  0  0  0  0
   -2.1180   -0.0454   -3.0446 C   0  0  0  0  0  0  0  0  0  0  0  0
   -0.9228   -0.3634   -2.5424 C   0  0  0  0  0  0  0  0  0  0  0  0
   -0.2732   -1.5223   -2.9251 O   0  0  0  0  0  0  0  0  0  0  0  0
    1.1329   -1.3482   -3.0160 C   0  0  2  0  0  0  0  0  0  0  0  0
    1.7499   -2.5363   -3.5483 O   0  0  0  0  0  0  0  0  0  0  0  0
    1.8485   -2.5960   -4.9371 C   0  0  0  0  0  0  0  0  0  0  0  0
    1.8192   -3.7707   -5.6024 C   0  0  0  0  0  0  0  0  0  0  0  0
    2.0038   -3.8762   -6.9776 O   0  0  0  0  0  0  0  0  0  0  0  0
    2.4034   -2.7524   -7.6904 C   0  0  0  0  0  0  0  0  0  0  0  0
    2.5573   -1.5540   -7.1034 C   0  0  0  0  0  0  0  0  0  0  0  0
    2.1694   -1.3267   -5.6862 C   0  0  0  0  0  0  0  0  0  0  0  0
    3.0282   -0.3618   -7.8903 C   0  0  3  0  0  0  0  0  0  0  0  0
    4.2758    0.0925   -7.3411 N   0  0  0  0  0  0  0  0  0  0  0  0
    5.0493    1.0077   -7.9675 C   0  0  0  0  0  0  0  0  0  0  0  0
    5.9237    1.6101   -7.3585 O   0  0  0  0  0  0  0  0  0  0  0  0
    4.8204    1.1916   -9.2871 N   0  0  0  0  0  0  0  0  0  0  0  0
    3.7635    0.5808  -10.0567 C   0  0  0  0  0  0  0  0  0  0  0  0
    3.2684   -0.6358   -9.3460 C   0  0  0  0  0  0  0  0  0  0  0  0
    3.0620   -1.8664   -9.8701 C   0  0  0  0  0  0  0  0  0  0  0  0
    2.6315   -2.8911   -9.0339 N   0  0  0  0  0  0  0  0  0  0  0  0
    3.2708   -2.2284  -11.2909 C   0  0  0  0  0  0  0  0  0  0  0  0
    4.5361   -2.7074  -11.7692 O   0  0  0  0  0  0  0  0  0  0  0  0
    3.4069   -3.5999  -11.7082 O   0  0  0  0  0  0  0  0  0  0  0  0
    1.7520   -5.0644   -4.9098 C   0  0  0  0  0  0  0  0  0  0  0  0
    2.9705   -5.6501   -4.5850 C   0  0  0  0  0  0  0  0  0  0  0  0
    3.0127   -6.7949   -3.9015 N   0  3  0  0  0  0  0  0  0  0  0  0
    4.2092   -7.3385   -3.6091 F   0  0  0  0  0  0  0  0  0  0  0  0
    1.9235   -7.4175   -3.4920 N   0  0  0  0  0  0  0  0  0  0  0  0
    0.7208   -6.9043   -3.7782 C   0  0  0  0  0  0  0  0  0  0  0  0
    0.5692   -5.7163   -4.5167 C   0  0  0  0  0  0  0  0  0  0  0  0
   -0.7382   -5.2570   -4.8118 C   0  0  0  0  0  0  0  0  0  0  0  0
   -1.8656   -5.9497   -4.3449 C   0  0  0  0  0  0  0  0  0  0  0  0
   -3.2170   -5.4744   -4.6567 C   0  0  0  0  0  0  0  0  0  0  0  0
   -3.3945   -4.5438   -5.4244 O   0  0  0  0  0  0  0  0  0  0  0  0
   -4.3687   -6.2006   -3.9985 C   0  0  0  0  0  0  0  0  0  0  0  0
   -5.5083   -6.0713   -4.4201 O   0  0  0  0  0  0  0  0  0  0  0  0
   -3.9795   -7.0501   -2.8099 C   0  0  1  0  0  0  0  0  0  0  0  0
   -2.7508   -7.7738   -3.0029 O   0  0  0  0  0  0  0  0  0  0  0  0
   -1.7149   -7.0890   -3.5738 C   0  0  0  0  0  0  0  0  0  0  0  0
   -0.4236   -7.5593   -3.3247 C   0  0  0  0  0  0  0  0  0  0  0  0
   -0.2740   -8.6727   -2.5874 F   0  0  0  0  0  0  0  0  0  0  0  0
   -4.0180   -6.2715   -1.5148 C   0  0  1  0  0  0  0  0  0  0  0  0
   -5.2923   -5.7079   -1.1522 O   0  0  0  0  0  0  0  0  0  0  0  0
   -3.2911   -6.8465   -0.4167 O   0  0  0  0  0  0  0  0  0  0  0  0
   -2.8567   -5.6716   -0.8865 C   0  0  0  0  0  0  0  0  0  0  0  0
   -1.7694   -5.3218   -1.3158 O   0  0  0  0  0  0  0  0  0  0  0  0
    1.7269   -0.9441   -1.6656 C   0  0  0  0  0  0  0  0  0  0  0  0
    2.7638   -1.4442   -1.2243 O   0  0  0  0  0  0  0  0  0  0  0  0
    1.0526    0.2372   -1.0054 C   0  0  3  0  0  0  0  0  0  0  0  0
   -0.3149    0.5782   -1.5529 C   0  0  0  0  0  0  0  0  0  0  0  0
   -0.9086    1.6026   -1.2187 O   0  0  0  0  0  0  0  0  0  0  0  0
    1.0088    0.0860    0.3505 F   0  0  0  0  0  0  0  0  0  0  0  0
  1  2  1  0  0  0  0
  2  3  2  0  0  0  0
  3  4  1  0  0  0  0
  3 51  1  0  0  0  0
  4  5  1  0  0  0  0
  5  6  1  1  0  0  0
  5 48  1  0  0  0  0
  6  7  1  0  0  0  0
  7  8  2  0  0  0  0
  7 12  1  0  0  0  0
  8  9  1  0  0  0  0
  8 25  1  0  0  0  0
  9 10  1  0  0  0  0
 10 11  2  0  0  0  0
 10 21  1  0  0  0  0
 11 12  1  0  0  0  0
 11 13  1  0  0  0  0
 13 14  1  0  0  0  0
 13 19  1  0  0  0  0
 14 15  1  0  0  0  0
 15 16  2  0  0  0  0
 15 17  1  0  0  0  0
 17 18  1  0  0  0  0
 18 19  1  0  0  0  0
 19 20  2  0  0  0  0
 20 21  1  0  0  0  0
 20 22  1  0  0  0  0
 22 23  1  0  0  0  0
 22 24  1  0  0  0  0
 23 24  1  0  0  0  0
 25 26  2  0  0  0  0
 25 31  1  0  0  0  0
 26 27  1  0  0  0  0
 27 28  1  0  0  0  0
 27 29  2  0  0  0  0
 29 30  1  0  0  0  0
 30 31  2  0  0  0  0
 30 41  1  0  0  0  0
 31 32  1  0  0  0  0
 32 33  2  0  0  0  0
 33 34  1  0  0  0  0
 33 40  1  0  0  0  0
 34 35  2  0  0  0  0
 34 36  1  0  0  0  0
 36 37  2  0  0  0  0
 38 36  1  6  0  0  0
 38 39  1  0  0  0  0
 38 43  1  0  0  0  0
 39 40  1  0  0  0  0
 40 41  2  0  0  0  0
 41 42  1  0  0  0  0
 43 44  1  1  0  0  0
 43 45  1  0  0  0  0
 43 46  1  0  0  0  0
 45 46  1  0  0  0  0
 46 47  2  0  0  0  0
 48 49  2  0  0  0  0
 48 50  1  0  0  0  0
 50 51  1  0  0  0  0
 50 53  1  0  0  0  0
 51 52  2  0  0  0  0
M  CHG  1  27   1
M  END
$$$$