
 OpenBabel11232002423D

 54 62  0  0  1  0  0  0  0  0999 V2000
    5.3667   -3.9847    0.7078 O   0  0  0  0  0  0  0  0  0  0  0  0
    4.1343   -3.5542    0.2797 C   0  0  0  0  0  0  0  0  0  0  0  0
    3.0016   -3.9543    0.8762 C   0  0  0  0  0  0  0  0  0  0  0  0
    2.9756   -4.8253    1.9665 N   0  0  0  0  0  0  0  0  0  0  0  0
    1.8107   -5.1588    2.7729 C   0  0  2  0  0  0  0  0  0  0  0  0
    1.9079   -6.4381    3.4718 O   0  0  0  0  0  0  0  0  0  0  0  0
    2.0880   -7.6438    2.7956 C   0  0  0  0  0  0  0  0  0  0  0  0
    1.6447   -8.8493    3.2598 C   0  0  0  0  0  0  0  0  0  0  0  0
    1.9622  -10.0475    2.5759 O   0  0  0  0  0  0  0  0  0  0  0  0
    2.7551  -10.0448    1.4210 C   0  0  0  0  0  0  0  0  0  0  0  0
    3.2228   -8.8899    0.9292 C   0  0  0  0  0  0  0  0  0  0  0  0
    2.9163   -7.5752    1.5452 C   0  0  0  0  0  0  0  0  0  0  0  0
    4.0999   -8.8109   -0.2786 C   0  0  3  0  0  0  0  0  0  0  0  0
    5.3441   -8.2738    0.1314 O   0  0  0  0  0  0  0  0  0  0  0  0
    6.2428   -8.0590   -0.8660 C   0  0  0  0  0  0  0  0  0  0  0  0
    7.1876   -7.3012   -0.7282 O   0  0  0  0  0  0  0  0  0  0  0  0
    5.9781   -8.7212   -2.0196 O   0  0  0  0  0  0  0  0  0  0  0  0
    5.3257   -9.9895   -1.9889 C   0  0  3  0  0  0  0  0  0  0  0  0
    4.4064  -10.1422   -0.8259 C   0  0  0  0  0  0  0  0  0  0  0  0
    3.9026  -11.2858   -0.3074 C   0  0  0  0  0  0  0  0  0  0  0  0
    3.0605  -11.2482    0.8056 O   0  3  0  0  0  0  0  0  0  0  0  0
    4.2144  -12.6215   -0.8701 C   0  0  0  0  0  0  0  0  0  0  0  0
    5.3492  -13.3664   -0.4075 O   0  0  0  0  0  0  0  0  0  0  0  0
    4.0154  -13.8155   -0.0976 O   0  0  0  0  0  0  0  0  0  0  0  0
    4.4735  -10.0821   -3.1143 O   0  0  0  0  0  0  0  0  0  0  0  0
    0.7851   -9.0503    4.4985 C   0  0  0  0  0  0  0  0  0  0  0  0
    0.9182   -8.1647    5.5678 C   0  0  0  0  0  0  0  0  0  0  0  0
    0.1197   -8.2289    6.6398 N   0  3  0  0  0  0  0  0  0  0  0  0
    0.3307   -7.3810    7.6655 F   0  0  0  0  0  0  0  0  0  0  0  0
   -0.8746   -9.0844    6.7387 N   0  0  0  0  0  0  0  0  0  0  0  0
   -1.0539  -10.0017    5.7905 C   0  0  0  0  0  0  0  0  0  0  0  0
   -0.1931  -10.0840    4.6716 C   0  0  0  0  0  0  0  0  0  0  0  0
   -0.3876  -11.2022    3.8242 C   0  0  0  0  0  0  0  0  0  0  0  0
   -1.4390  -12.1143    4.0054 C   0  0  0  0  0  0  0  0  0  0  0  0
   -1.5773  -13.2481    3.0899 C   0  0  0  0  0  0  0  0  0  0  0  0
   -0.7422  -13.4463    2.2199 O   0  0  0  0  0  0  0  0  0  0  0  0
   -2.7753  -14.1402    3.3155 C   0  0  0  0  0  0  0  0  0  0  0  0
   -2.7339  -15.3140    2.9845 O   0  0  0  0  0  0  0  0  0  0  0  0
   -3.9330  -13.4440    3.9987 C   0  0  1  0  0  0  0  0  0  0  0  0
   -3.4955  -12.6855    5.1526 O   0  0  0  0  0  0  0  0  0  0  0  0
   -2.3593  -11.9367    5.0154 C   0  0  0  0  0  0  0  0  0  0  0  0
   -2.1237  -10.9023    5.9205 C   0  0  0  0  0  0  0  0  0  0  0  0
   -2.9690  -10.7471    6.9529 F   0  0  0  0  0  0  0  0  0  0  0  0
   -4.7654  -12.6387    3.0236 C   0  0  1  0  0  0  0  0  0  0  0  0
   -5.3598  -13.3765    1.9393 O   0  0  0  0  0  0  0  0  0  0  0  0
   -5.5979  -11.6216    3.5978 O   0  0  0  0  0  0  0  0  0  0  0  0
   -4.6102  -11.2131    2.7977 C   0  0  0  0  0  0  0  0  0  0  0  0
   -3.6669  -10.4577    2.9704 O   0  0  0  0  0  0  0  0  0  0  0  0
    0.5284   -5.0430    1.9670 C   0  0  0  0  0  0  0  0  0  0  0  0
   -0.3995   -5.8398    2.0086 O   0  0  0  0  0  0  0  0  0  0  0  0
    0.4921   -3.8151    1.0953 C   0  0  0  0  0  0  0  0  0  0  0  0
   -0.5112   -3.1207    1.0946 O   0  0  0  0  0  0  0  0  0  0  0  0
    1.7201   -3.4320    0.2943 C   0  0  0  0  0  0  0  0  0  0  0  0
    1.6382   -2.7866   -0.7358 O   0  0  0  0  0  0  0  0  0  0  0  0
  1  2  1  0  0  0  0
  2  3  2  0  0  0  0
  3  4  1  0  0  0  0
  3 53  1  0  0  0  0
  4  5  1  0  0  0  0
  5  6  1  6  0  0  0
  5 49  1  0  0  0  0
  6  7  1  0  0  0  0
  7  8  2  0  0  0  0
  7 12  1  0  0  0  0
  8  9  1  0  0  0  0
  8 26  1  0  0  0  0
  9 10  1  0  0  0  0
 10 11  2  0  0  0  0
 10 21  1  0  0  0  0
 11 12  1  0  0  0  0
 11 13  1  0  0  0  0
 13 14  1  0  0  0  0
 13 19  1  0  0  0  0
 14 15  1  0  0  0  0
 15 16  2  0  0  0  0
 15 17  1  0  0  0  0
 17 18  1  0  0  0  0
 18 19  1  0  0  0  0
 18 25  1  0  0  0  0
 19 20  2  0  0  0  0
 20 21  1  0  0  0  0
 20 22  1  0  0  0  0
 22 23  1  0  0  0  0
 22 24  1  0  0  0  0
 23 24  1  0  0  0  0
 26 27  2  0  0  0  0
 26 32  1  0  0  0  0
 27 28  1  0  0  0  0
 28 29  1  0  0  0  0
 28 30  2  0  0  0  0
 30 31  1  0  0  0  0
 31 32  2  0  0  0  0
 31 42  1  0  0  0  0
 32 33  1  0  0  0  0
 33 34  2  0  0  0  0
 34 35  1  0  0  0  0
 34 41  1  0  0  0  0
 35 36  2  0  0  0  0
 35 37  1  0  0  0  0
 37 38  2  0  0  0  0
 39 37  1  6  0  0  0
 39 40  1  0  0  0  0
 39 44  1  0  0  0  0
 40 41  1  0  0  0  0
 41 42  2  0  0  0  0
 42 43  1  0  0  0  0
 44 45  1  6  0  0  0
 44 46  1  0  0  0  0
 44 47  1  0  0  0  0
 46 47  1  0  0  0  0
 47 48  2  0  0  0  0
 49 50  2  0  0  0  0
 49 51  1  0  0  0  0
 51 52  2  0  0  0  0
 51 53  1  0  0  0  0
 53 54  2  0  0  0  0
M  CHG  2  21   1  28   1
M  END
$$$$