
 OpenBabel11222000543D

 55 63  0  0  1  0  0  0  0  0999 V2000
    0.0396   -2.7785    5.4770 O   0  0  0  0  0  0  0  0  0  0  0  0
    0.1012   -2.7317    4.1087 C   0  0  0  0  0  0  0  0  0  0  0  0
    0.4288   -1.6101    3.4554 C   0  0  0  0  0  0  0  0  0  0  0  0
    0.6632   -0.4392    4.1530 O   0  0  0  0  0  0  0  0  0  0  0  0
    1.6985    0.3919    3.6440 C   0  0  2  0  0  0  0  0  0  0  0  0
    1.9340    1.5506    4.4797 O   0  0  0  0  0  0  0  0  0  0  0  0
    2.3626    1.3362    5.7883 C   0  0  0  0  0  0  0  0  0  0  0  0
    3.0884    2.2667    6.4497 C   0  0  0  0  0  0  0  0  0  0  0  0
    3.6008    2.0716    7.7362 O   0  0  0  0  0  0  0  0  0  0  0  0
    3.4472    0.8243    8.3437 C   0  0  0  0  0  0  0  0  0  0  0  0
    2.6918   -0.1275    7.7819 C   0  0  0  0  0  0  0  0  0  0  0  0
    1.9857    0.0510    6.4883 C   0  0  0  0  0  0  0  0  0  0  0  0
    2.6389   -1.4708    8.4169 C   0  0  0  0  0  0  0  0  0  0  0  0
    1.9653   -2.4150    7.8487 N   0  0  0  0  0  0  0  0  0  0  0  0
    1.9441   -3.6741    8.4003 C   0  0  0  0  0  0  0  0  0  0  0  0
    1.3464   -4.5532    7.7911 O   0  0  0  0  0  0  0  0  0  0  0  0
    2.5678   -3.9838    9.5887 N   0  0  0  0  0  0  0  0  0  0  0  0
    3.2374   -3.0523   10.1544 C   0  0  0  0  0  0  0  0  0  0  0  0
    3.4004   -1.6863    9.6655 C   0  0  0  0  0  0  0  0  0  0  0  0
    4.1242   -0.6592   10.1646 C   0  0  0  0  0  0  0  0  0  0  0  0
    4.1260    0.5760    9.5094 N   0  0  0  0  0  0  0  0  0  0  0  0
    4.9693   -0.7334   11.3827 C   0  0  0  0  0  0  0  0  0  0  0  0
    6.3505   -1.1231   11.3147 O   0  0  0  0  0  0  0  0  0  0  0  0
    6.0046    0.2363   11.6388 O   0  0  0  0  0  0  0  0  0  0  0  0
    3.8364   -3.3389   11.3125 O   0  0  0  0  0  0  0  0  0  0  0  0
    3.4988    3.5402    5.8288 C   0  0  0  0  0  0  0  0  0  0  0  0
    4.7161    3.5447    5.1616 C   0  0  0  0  0  0  0  0  0  0  0  0
    5.1475    4.6457    4.5452 N   0  3  0  0  0  0  0  0  0  0  0  0
    6.3367    4.6206    3.9140 F   0  0  0  0  0  0  0  0  0  0  0  0
    4.4535    5.7661    4.5263 N   0  0  0  0  0  0  0  0  0  0  0  0
    3.2621    5.8374    5.1361 C   0  0  0  0  0  0  0  0  0  0  0  0
    2.7353    4.7285    5.8334 C   0  0  0  0  0  0  0  0  0  0  0  0
    1.4840    4.8651    6.4814 C   0  0  0  0  0  0  0  0  0  0  0  0
    0.7502    6.0564    6.3925 C   0  0  0  0  0  0  0  0  0  0  0  0
   -0.5758    6.1633    7.0158 C   0  0  0  0  0  0  0  0  0  0  0  0
   -1.0173    5.2737    7.7220 O   0  0  0  0  0  0  0  0  0  0  0  0
   -1.3566    7.4259    6.7295 C   0  0  0  0  0  0  0  0  0  0  0  0
   -2.2313    7.8065    7.4919 O   0  0  0  0  0  0  0  0  0  0  0  0
   -0.9213    8.1433    5.4751 C   0  0  1  0  0  0  0  0  0  0  0  0
    0.5177    8.2699    5.4270 O   0  0  0  0  0  0  0  0  0  0  0  0
    1.2444    7.1313    5.6663 C   0  0  0  0  0  0  0  0  0  0  0  0
    2.5126    7.0252    5.0742 C   0  0  0  0  0  0  0  0  0  0  0  0
    3.0452    8.1358    4.3274 C   0  0  0  0  0  0  0  0  0  0  0  0
    3.5280    8.9941    3.7281 N   0  0  0  0  0  0  0  0  0  0  0  0
   -1.5211    7.5520    4.2175 C   0  0  1  0  0  0  0  0  0  0  0  0
   -2.9589    7.5436    4.1478 O   0  0  0  0  0  0  0  0  0  0  0  0
   -0.8785    7.9314    2.9919 O   0  0  0  0  0  0  0  0  0  0  0  0
   -0.8314    6.6324    3.3212 C   0  0  0  0  0  0  0  0  0  0  0  0
    0.1124    5.8832    3.4721 O   0  0  0  0  0  0  0  0  0  0  0  0
    1.2884    0.8398    2.2547 C   0  0  0  0  0  0  0  0  0  0  0  0
    1.2702    1.9919    1.8470 O   0  0  0  0  0  0  0  0  0  0  0  0
    0.9660   -0.3299    1.3565 C   0  0  0  0  0  0  0  0  0  0  0  0
    1.2169   -0.2539    0.1641 O   0  0  0  0  0  0  0  0  0  0  0  0
    0.4597   -1.6238    1.9678 C   0  0  0  0  0  0  0  0  0  0  0  0
    0.1461   -2.5812    1.2824 O   0  0  0  0  0  0  0  0  0  0  0  0
  1  2  1  0  0  0  0
  2  3  2  0  0  0  0
  3  4  1  0  0  0  0
  3 54  1  0  0  0  0
  4  5  1  0  0  0  0
  5  6  1  1  0  0  0
  5 50  1  0  0  0  0
  6  7  1  0  0  0  0
  7  8  2  0  0  0  0
  7 12  1  0  0  0  0
  8  9  1  0  0  0  0
  8 26  1  0  0  0  0
  9 10  1  0  0  0  0
 10 11  2  0  0  0  0
 10 21  1  0  0  0  0
 11 12  1  0  0  0  0
 11 13  1  0  0  0  0
 13 14  2  0  0  0  0
 13 19  1  0  0  0  0
 14 15  1  0  0  0  0
 15 16  2  0  0  0  0
 15 17  1  0  0  0  0
 17 18  2  0  0  0  0
 18 19  1  0  0  0  0
 18 25  1  0  0  0  0
 19 20  2  0  0  0  0
 20 21  1  0  0  0  0
 20 22  1  0  0  0  0
 22 23  1  0  0  0  0
 22 24  1  0  0  0  0
 23 24  1  0  0  0  0
 26 27  2  0  0  0  0
 26 32  1  0  0  0  0
 27 28  1  0  0  0  0
 28 29  1  0  0  0  0
 28 30  2  0  0  0  0
 30 31  1  0  0  0  0
 31 32  2  0  0  0  0
 31 42  1  0  0  0  0
 32 33  1  0  0  0  0
 33 34  2  0  0  0  0
 34 35  1  0  0  0  0
 34 41  1  0  0  0  0
 35 36  2  0  0  0  0
 35 37  1  0  0  0  0
 37 38  2  0  0  0  0
 39 37  1  1  0  0  0
 39 40  1  0  0  0  0
 39 45  1  0  0  0  0
 40 41  1  0  0  0  0
 41 42  2  0  0  0  0
 42 43  1  0  0  0  0
 43 44  3  0  0  0  0
 45 46  1  6  0  0  0
 45 47  1  0  0  0  0
 45 48  1  0  0  0  0
 47 48  1  0  0  0  0
 48 49  2  0  0  0  0
 50 51  2  0  0  0  0
 50 52  1  0  0  0  0
 52 53  2  0  0  0  0
 52 54  1  0  0  0  0
 54 55  2  0  0  0  0
M  CHG  1  28   1
M  END
$$$$