
 OpenBabel09282021063D

 51 59  0  0  1  0  0  0  0  0999 V2000
    6.8953   -3.2174   -0.4265 O   0  0  0  0  0  0  0  0  0  0  0  0
    6.6554   -2.8394    0.8723 C   0  0  0  0  0  0  0  0  0  0  0  0
    5.4763   -3.0712    1.4635 C   0  0  0  0  0  0  0  0  0  0  0  0
    4.4174   -3.6903    0.8242 N   0  0  0  0  0  0  0  0  0  0  0  0
    3.2771   -4.2776    1.5067 C   0  0  2  0  0  0  0  0  0  0  0  0
    2.2427   -4.5761    0.5681 O   0  0  0  0  0  0  0  0  0  0  0  0
    2.3802   -5.8557    0.0810 C   0  0  0  0  0  0  0  0  0  0  0  0
    3.2012   -6.0288   -1.0049 N   0  0  0  0  0  0  0  0  0  0  0  0
    3.4338   -7.2901   -1.4966 C   0  0  0  0  0  0  0  0  0  0  0  0
    2.8711   -8.3825   -0.9401 C   0  0  0  0  0  0  0  0  0  0  0  0
    1.9886   -8.2372    0.1469 O   0  0  0  0  0  0  0  0  0  0  0  0
    1.7575   -6.9310    0.6256 C   0  0  0  0  0  0  0  0  0  0  0  0
    0.8923   -6.8273    1.8099 C   0  0  0  0  0  0  0  0  0  0  0  0
    1.5621   -6.9846    2.9748 N   0  0  0  0  0  0  0  0  0  0  0  0
    0.8453   -6.8012    4.0870 C   0  0  0  0  0  0  0  0  0  0  0  0
   -0.4381   -6.4295    4.1409 N   0  0  0  0  0  0  0  0  0  0  0  0
   -1.0792   -6.2562    2.9820 C   0  0  0  0  0  0  0  0  0  0  0  0
   -0.4714   -6.4842    1.7387 C   0  0  0  0  0  0  0  0  0  0  0  0
   -1.2499   -6.3566    0.5581 C   0  0  0  0  0  0  0  0  0  0  0  0
   -2.5954   -5.9751    0.6371 C   0  0  0  0  0  0  0  0  0  0  0  0
   -3.1672   -5.6636    1.8611 C   0  0  0  0  0  0  0  0  0  0  0  0
   -2.4034   -5.8272    3.0187 C   0  0  0  0  0  0  0  0  0  0  0  0
   -4.4447   -5.2143    2.0440 O   0  0  0  0  0  0  0  0  0  0  0  0
   -5.2395   -4.9354    0.8820 C   0  0  2  0  0  0  0  0  0  0  0  0
   -4.9146   -5.7790   -0.3223 C   0  0  0  0  0  0  0  0  0  0  0  0
   -5.7366   -6.2799   -1.0751 O   0  0  0  0  0  0  0  0  0  0  0  0
   -3.4354   -5.9459   -0.5633 C   0  0  0  0  0  0  0  0  0  0  0  0
   -2.9835   -6.0719   -1.6888 O   0  0  0  0  0  0  0  0  0  0  0  0
   -5.1950   -3.4720    0.5385 C   0  0  1  0  0  0  0  0  0  0  0  0
   -3.8971   -2.9097    0.2514 O   0  0  0  0  0  0  0  0  0  0  0  0
   -6.2215   -3.0085   -0.3447 O   0  0  0  0  0  0  0  0  0  0  0  0
   -6.2724   -2.5742    0.9239 C   0  0  0  0  0  0  0  0  0  0  0  0
   -7.1710   -2.6632    1.7416 O   0  0  0  0  0  0  0  0  0  0  0  0
    3.1323   -9.6481   -1.4051 N   0  0  0  0  0  0  0  0  0  0  0  0
    4.0201   -9.9072   -2.4437 C   0  0  0  0  0  0  0  0  0  0  0  0
    4.6101   -8.8764   -3.0860 C   0  0  0  0  0  0  0  0  0  0  0  0
    4.3423   -7.4827   -2.6643 C   0  0  0  0  0  0  0  0  0  0  0  0
    4.8701   -6.4628   -3.2612 N   0  0  0  0  0  0  0  0  0  0  0  0
    5.7070   -6.6831   -4.3369 C   0  0  0  0  0  0  0  0  0  0  0  0
    6.1730   -5.7077   -4.9116 O   0  0  0  0  0  0  0  0  0  0  0  0
    6.0450   -7.9420   -4.7960 N   0  0  0  0  0  0  0  0  0  0  0  0
    5.5376   -8.9732   -4.2134 C   0  0  0  0  0  0  0  0  0  0  0  0
    4.2412  -11.3365   -2.7642 C   0  0  0  0  0  0  0  0  0  0  0  0
    5.5416  -11.9423   -2.6848 O   0  0  0  0  0  0  0  0  0  0  0  0
    4.5201  -12.3036   -1.7367 O   0  0  0  0  0  0  0  0  0  0  0  0
    2.7829   -3.2760    2.5391 C   0  0  0  0  0  0  0  0  0  0  0  0
    1.6353   -2.8797    2.6874 O   0  0  0  0  0  0  0  0  0  0  0  0
    3.8985   -2.7866    3.4323 C   0  0  0  0  0  0  0  0  0  0  0  0
    3.6657   -2.5702    4.6141 O   0  0  0  0  0  0  0  0  0  0  0  0
    5.3090   -2.6176    2.8834 C   0  0  0  0  0  0  0  0  0  0  0  0
    6.2165   -2.1751    3.5701 O   0  0  0  0  0  0  0  0  0  0  0  0
  1  2  1  0  0  0  0
  2  3  2  0  0  0  0
  3  4  1  0  0  0  0
  3 50  1  0  0  0  0
  4  5  1  0  0  0  0
  5  6  1  6  0  0  0
  5 46  1  0  0  0  0
  6  7  1  0  0  0  0
  7  8  1  0  0  0  0
  7 12  2  0  0  0  0
  8  9  1  0  0  0  0
  9 10  2  0  0  0  0
  9 37  1  0  0  0  0
 10 11  1  0  0  0  0
 10 34  1  0  0  0  0
 11 12  1  0  0  0  0
 12 13  1  0  0  0  0
 13 14  2  0  0  0  0
 13 18  1  0  0  0  0
 14 15  1  0  0  0  0
 15 16  2  0  0  0  0
 16 17  1  0  0  0  0
 17 18  2  0  0  0  0
 17 22  1  0  0  0  0
 18 19  1  0  0  0  0
 19 20  2  0  0  0  0
 20 21  1  0  0  0  0
 20 27  1  0  0  0  0
 21 22  2  0  0  0  0
 21 23  1  0  0  0  0
 24 23  1  1  0  0  0
 24 25  1  0  0  0  0
 24 29  1  0  0  0  0
 25 26  2  0  0  0  0
 25 27  1  0  0  0  0
 27 28  2  0  0  0  0
 29 30  1  6  0  0  0
 29 31  1  0  0  0  0
 29 32  1  0  0  0  0
 31 32  1  0  0  0  0
 32 33  2  0  0  0  0
 34 35  1  0  0  0  0
 35 36  2  0  0  0  0
 35 43  1  0  0  0  0
 36 37  1  0  0  0  0
 36 42  1  0  0  0  0
 37 38  2  0  0  0  0
 38 39  1  0  0  0  0
 39 40  2  0  0  0  0
 39 41  1  0  0  0  0
 41 42  2  0  0  0  0
 43 44  1  0  0  0  0
 43 45  1  0  0  0  0
 44 45  1  0  0  0  0
 46 47  2  0  0  0  0
 46 48  1  0  0  0  0
 48 49  2  0  0  0  0
 48 50  1  0  0  0  0
 50 51  2  0  0  0  0
M  END
$$$$