
 OpenBabel11262000133D

 54 62  0  0  1  0  0  0  0  0999 V2000
    6.0817   -4.6740   -4.2975 O   0  0  0  0  0  0  0  0  0  0  0  0
    5.2871   -5.0754   -3.2546 C   0  0  0  0  0  0  0  0  0  0  0  0
    4.0921   -4.5452   -2.9698 C   0  0  0  0  0  0  0  0  0  0  0  0
    3.5840   -3.4956   -3.7133 O   0  0  0  0  0  0  0  0  0  0  0  0
    2.1631   -3.3539   -3.6094 C   0  0  2  0  0  0  0  0  0  0  0  0
    1.6861   -2.2707   -4.4333 O   0  0  0  0  0  0  0  0  0  0  0  0
    1.9287   -2.3355   -5.8055 C   0  0  0  0  0  0  0  0  0  0  0  0
    2.0362   -1.2205   -6.5628 C   0  0  0  0  0  0  0  0  0  0  0  0
    2.2939   -1.2282   -7.9351 O   0  0  0  0  0  0  0  0  0  0  0  0
    2.5825   -2.4255   -8.5558 C   0  0  0  0  0  0  0  0  0  0  0  0
    2.4557   -3.6232   -7.8945 C   0  0  0  0  0  0  0  0  0  0  0  0
    2.0203   -3.6819   -6.4683 C   0  0  0  0  0  0  0  0  0  0  0  0
    2.7828   -4.7689   -8.6082 C   0  0  0  0  0  0  0  0  0  0  0  0
    2.7045   -5.9961   -7.9399 O   0  0  0  0  0  0  0  0  0  0  0  0
    2.7646   -7.2190   -8.6048 C   0  0  0  0  0  0  0  0  0  0  0  0
    2.5618   -8.2677   -8.0078 O   0  0  0  0  0  0  0  0  0  0  0  0
    2.9949   -7.1652   -9.9367 O   0  0  0  0  0  0  0  0  0  0  0  0
    3.5924   -6.0233  -10.5543 C   0  0  3  0  0  0  0  0  0  0  0  0
    3.2279   -4.7286   -9.9133 C   0  0  0  0  0  0  0  0  0  0  0  0
    3.3527   -3.4750  -10.5240 C   0  0  0  0  0  0  0  0  0  0  0  0
    3.0222   -2.3397   -9.8337 N   0  0  0  0  0  0  0  0  0  0  0  0
    3.8755   -3.3270  -11.9402 C   0  0  0  0  0  0  0  0  0  0  0  0
    2.9069   -3.3535  -12.9995 O   0  0  0  0  0  0  0  0  0  0  0  0
    3.5720   -2.1205  -12.6584 O   0  0  0  0  0  0  0  0  0  0  0  0
    5.0017   -6.1903  -10.6090 O   0  0  0  0  0  0  0  0  0  0  0  0
    1.9067    0.1489   -6.0213 C   0  0  0  0  0  0  0  0  0  0  0  0
    3.0812    0.6760   -5.6005 N   0  0  0  0  0  0  0  0  0  0  0  0
    3.0590    1.9585   -5.2078 C   0  0  0  0  0  0  0  0  0  0  0  0
    4.2153    2.4992   -4.7979 F   0  0  0  0  0  0  0  0  0  0  0  0
    1.9306    2.7560   -5.2089 C   0  0  0  0  0  0  0  0  0  0  0  0
    0.6997    2.2234   -5.6265 C   0  0  0  0  0  0  0  0  0  0  0  0
    0.6804    0.8679   -6.0479 C   0  0  0  0  0  0  0  0  0  0  0  0
   -0.5469    0.3224   -6.4895 C   0  0  0  0  0  0  0  0  0  0  0  0
   -1.7048    1.1043   -6.5636 C   0  0  0  0  0  0  0  0  0  0  0  0
   -2.9658    0.5080   -7.0224 C   0  0  0  0  0  0  0  0  0  0  0  0
   -3.0836   -0.6953   -7.1956 O   0  0  0  0  0  0  0  0  0  0  0  0
   -4.1267    1.4501   -7.2484 C   0  0  0  0  0  0  0  0  0  0  0  0
   -5.2557    1.0273   -7.4577 O   0  0  0  0  0  0  0  0  0  0  0  0
   -3.7552    2.9127   -7.2499 C   0  0  1  0  0  0  0  0  0  0  0  0
   -2.7638    3.2792   -6.2857 O   0  0  0  0  0  0  0  0  0  0  0  0
   -1.6765    2.4424   -6.1972 C   0  0  0  0  0  0  0  0  0  0  0  0
   -0.4994    2.9961   -5.6567 C   0  0  0  0  0  0  0  0  0  0  0  0
   -0.4915    4.3826   -5.3580 N   0  0  0  0  0  0  0  0  0  0  0  0
   -3.3667    3.3721   -8.6200 C   0  0  1  0  0  0  0  0  0  0  0  0
   -2.2457    2.6964   -9.2387 O   0  0  0  0  0  0  0  0  0  0  0  0
   -4.4702    3.6554   -9.4832 O   0  0  0  0  0  0  0  0  0  0  0  0
   -3.6793    4.6972   -9.1547 C   0  0  0  0  0  0  0  0  0  0  0  0
   -3.0352    5.4287   -9.8682 O   0  0  0  0  0  0  0  0  0  0  0  0
    1.7478   -3.1524   -2.1373 C   0  0  0  0  0  0  0  0  0  0  0  0
    0.8818   -2.3469   -1.7869 O   0  0  0  0  0  0  0  0  0  0  0  0
    2.4190   -4.0681   -1.1333 C   0  0  3  0  0  0  0  0  0  0  0  0
    3.3640   -5.0513   -1.7701 C   0  0  0  0  0  0  0  0  0  0  0  0
    3.5658   -6.1746   -1.3158 O   0  0  0  0  0  0  0  0  0  0  0  0
    3.0650   -3.3492   -0.1659 F   0  0  0  0  0  0  0  0  0  0  0  0
  1  2  1  0  0  0  0
  2  3  2  0  0  0  0
  3  4  1  0  0  0  0
  3 52  1  0  0  0  0
  4  5  1  0  0  0  0
  5  6  1  6  0  0  0
  5 49  1  0  0  0  0
  6  7  1  0  0  0  0
  7  8  2  0  0  0  0
  7 12  1  0  0  0  0
  8  9  1  0  0  0  0
  8 26  1  0  0  0  0
  9 10  1  0  0  0  0
 10 11  2  0  0  0  0
 10 21  1  0  0  0  0
 11 12  1  0  0  0  0
 11 13  1  0  0  0  0
 13 14  1  0  0  0  0
 13 19  2  0  0  0  0
 14 15  1  0  0  0  0
 15 16  2  0  0  0  0
 15 17  1  0  0  0  0
 17 18  1  0  0  0  0
 18 19  1  0  0  0  0
 18 25  1  0  0  0  0
 19 20  1  0  0  0  0
 20 21  2  0  0  0  0
 20 22  1  0  0  0  0
 22 23  1  0  0  0  0
 22 24  1  0  0  0  0
 23 24  1  0  0  0  0
 26 27  2  0  0  0  0
 26 32  1  0  0  0  0
 27 28  1  0  0  0  0
 28 29  1  0  0  0  0
 28 30  2  0  0  0  0
 30 31  1  0  0  0  0
 31 32  2  0  0  0  0
 31 42  1  0  0  0  0
 32 33  1  0  0  0  0
 33 34  2  0  0  0  0
 34 35  1  0  0  0  0
 34 41  1  0  0  0  0
 35 36  2  0  0  0  0
 35 37  1  0  0  0  0
 37 38  2  0  0  0  0
 39 37  1  6  0  0  0
 39 40  1  0  0  0  0
 39 44  1  0  0  0  0
 40 41  1  0  0  0  0
 41 42  2  0  0  0  0
 42 43  1  0  0  0  0
 44 45  1  6  0  0  0
 44 46  1  0  0  0  0
 44 47  1  0  0  0  0
 46 47  1  0  0  0  0
 47 48  2  0  0  0  0
 49 50  2  0  0  0  0
 49 51  1  0  0  0  0
 51 52  1  0  0  0  0
 51 54  1  0  0  0  0
 52 53  2  0  0  0  0
M  END
$$$$