
 OpenBabel09212006023D

 45 50  0  0  1  0  0  0  0  0999 V2000
    6.2405    5.4631   12.4891 O   0  0  0  0  0  0  0  0  0  0  0  0
    5.5929    4.5488   13.3724 C   0  0  0  0  0  0  0  0  0  0  0  0
    4.5311    3.7301   12.6216 C   0  0  2  0  0  0  0  0  0  0  0  0
    5.0858    2.9514   11.5586 O   0  0  0  0  0  0  0  0  0  0  0  0
    5.0152    3.4678   10.2924 C   0  0  0  0  0  0  0  0  0  0  0  0
    5.6169    2.7240    9.2748 C   0  0  0  0  0  0  0  0  0  0  0  0
    5.6353    3.1939    7.9396 C   0  0  0  0  0  0  0  0  0  0  0  0
    6.2224    2.4382    6.9228 C   0  0  0  0  0  0  0  0  0  0  0  0
    6.2315    2.9490    5.6360 C   0  0  0  0  0  0  0  0  0  0  0  0
    5.7150    4.1497    5.2906 N   0  0  0  0  0  0  0  0  0  0  0  0
    5.1357    4.8967    6.2683 C   0  0  0  0  0  0  0  0  0  0  0  0
    5.0519    4.4481    7.6099 C   0  0  0  0  0  0  0  0  0  0  0  0
    4.4114    5.1555    8.6389 C   0  0  0  0  0  0  0  0  0  0  0  0
    4.3929    4.6705    9.9511 C   0  0  0  0  0  0  0  0  0  0  0  0
    3.6781    5.4149   10.9796 C   0  0  0  0  0  0  0  0  0  0  0  0
    3.2828    6.5589   10.8210 O   0  0  0  0  0  0  0  0  0  0  0  0
    3.4169    4.6699   12.2503 C   0  0  0  0  0  0  0  0  0  0  0  0
    2.4027    4.8474   12.9026 O   0  0  0  0  0  0  0  0  0  0  0  0
    4.5635    6.1876    5.7855 C   0  0  0  0  0  0  0  0  0  0  0  0
    5.2477    7.3558    5.7484 C   0  0  0  0  0  0  0  0  0  0  0  0
    6.5264    7.4694    6.3000 O   0  0  0  0  0  0  0  0  0  0  0  0
    6.9983    8.7622    6.7119 C   0  0  1  0  0  0  0  0  0  0  0  0
    6.1504    9.3574    7.6958 O   0  0  0  0  0  0  0  0  0  0  0  0
    6.6890   10.5908    8.2085 C   0  0  1  0  0  0  0  0  0  0  0  0
    5.5738   11.4263    8.8206 C   0  0  0  0  0  0  0  0  0  0  0  0
    4.6175   11.7122    7.7940 O   0  0  0  0  0  0  0  0  0  0  0  0
    7.7312   10.1812    9.2215 C   0  0  0  0  0  0  0  0  0  0  0  0
    7.9069   10.6858   10.3054 O   0  0  0  0  0  0  0  0  0  0  0  0
    8.6275    9.0785    8.6750 C   0  0  0  0  0  0  0  0  0  0  0  0
    9.5044    8.5889    9.3606 O   0  0  0  0  0  0  0  0  0  0  0  0
    8.4409    8.6440    7.2277 C   0  0  0  0  0  0  0  0  0  0  0  0
    9.4123    8.3694    6.5396 O   0  0  0  0  0  0  0  0  0  0  0  0
    4.6418    8.5411    5.0310 C   0  0  0  0  0  0  0  0  0  0  0  0
    3.1793    8.4027    4.7078 C   0  0  0  0  0  0  0  0  0  0  0  0
    2.5586    7.1675    4.8973 C   0  0  0  0  0  0  0  0  0  0  0  0
    3.2571    6.0514    5.3155 O   0  0  0  0  0  0  0  0  0  0  0  0
    1.2352    6.9604    4.6892 N   0  0  0  0  0  0  0  0  0  0  0  0
    0.5172    8.0146    4.2555 C   0  0  0  0  0  0  0  0  0  0  0  0
   -0.7939    7.7162    4.0739 O   0  0  0  0  0  0  0  0  0  0  0  0
    1.0471    9.2636    4.0004 C   0  0  0  0  0  0  0  0  0  0  0  0
    2.4070    9.5030    4.2567 C   0  0  0  0  0  0  0  0  0  0  0  0
    3.0463   10.7060    3.9039 N   0  0  0  0  0  0  0  0  0  0  0  0
    0.1696   10.3167    3.5514 N   0  0  0  0  0  0  0  0  0  0  0  0
   -0.7495   10.6592    4.3089 O   0  0  0  0  0  0  0  0  0  0  0  0
    0.4448   10.8715    2.4771 O   0  0  0  0  0  0  0  0  0  0  0  0
  1  2  1  0  0  0  0
  3  4  1  0  0  0  0
  3 17  1  0  0  0  0
  3  2  1  6  0  0  0
  4  5  1  0  0  0  0
  5  6  2  0  0  0  0
  5 14  1  0  0  0  0
  6  7  1  0  0  0  0
  7  8  2  0  0  0  0
  7 12  1  0  0  0  0
  8  9  1  0  0  0  0
  9 10  2  0  0  0  0
 10 11  1  0  0  0  0
 11 12  2  0  0  0  0
 11 19  1  0  0  0  0
 12 13  1  0  0  0  0
 13 14  2  0  0  0  0
 14 15  1  0  0  0  0
 15 16  2  0  0  0  0
 15 17  1  0  0  0  0
 17 18  2  0  0  0  0
 19 20  2  0  0  0  0
 19 36  1  0  0  0  0
 20 21  1  0  0  0  0
 20 33  1  0  0  0  0
 22 21  1  1  0  0  0
 22 23  1  0  0  0  0
 22 31  1  0  0  0  0
 23 24  1  0  0  0  0
 24 27  1  0  0  0  0
 24 25  1  1  0  0  0
 25 26  1  0  0  0  0
 27 28  2  0  0  0  0
 27 29  1  0  0  0  0
 29 30  2  0  0  0  0
 29 31  1  0  0  0  0
 31 32  2  0  0  0  0
 33 34  1  0  0  0  0
 34 35  2  0  0  0  0
 34 41  1  0  0  0  0
 35 36  1  0  0  0  0
 35 37  1  0  0  0  0
 37 38  2  0  0  0  0
 38 39  1  0  0  0  0
 38 40  1  0  0  0  0
 40 41  2  0  0  0  0
 40 43  1  0  0  0  0
 41 42  1  0  0  0  0
 43 44  2  0  0  0  0
 43 45  2  0  0  0  0
M  END
$$$$