
 OpenBabel11252023383D

 54 62  0  0  1  0  0  0  0  0999 V2000
   -3.2727    3.4002    2.9546 O   0  0  0  0  0  0  0  0  0  0  0  0
   -2.9891    2.4016    2.0621 C   0  0  0  0  0  0  0  0  0  0  0  0
   -1.9423    2.4497    1.2298 C   0  0  0  0  0  0  0  0  0  0  0  0
   -1.1016    3.5530    1.1535 O   0  0  0  0  0  0  0  0  0  0  0  0
    0.2908    3.2441    1.2025 C   0  0  2  0  0  0  0  0  0  0  0  0
    1.1022    4.3486    0.6945 O   0  0  0  0  0  0  0  0  0  0  0  0
    1.1727    5.5233    1.4359 C   0  0  0  0  0  0  0  0  0  0  0  0
    1.4286    6.7230    0.8550 C   0  0  0  0  0  0  0  0  0  0  0  0
    1.4956    7.9167    1.5794 O   0  0  0  0  0  0  0  0  0  0  0  0
    1.2589    7.9097    2.9452 C   0  0  0  0  0  0  0  0  0  0  0  0
    1.0296    6.7437    3.6372 C   0  0  0  0  0  0  0  0  0  0  0  0
    1.0075    5.4259    2.9379 C   0  0  0  0  0  0  0  0  0  0  0  0
    0.8286    6.8565    5.0139 C   0  0  0  0  0  0  0  0  0  0  0  0
    0.5614    5.6863    5.7348 O   0  0  0  0  0  0  0  0  0  0  0  0
    0.4450    5.6471    7.1239 C   0  0  0  0  0  0  0  0  0  0  0  0
    0.2621    4.5875    7.7090 O   0  0  0  0  0  0  0  0  0  0  0  0
    0.6091    6.8155    7.7836 O   0  0  0  0  0  0  0  0  0  0  0  0
    0.6344    8.0884    7.1444 C   0  0  3  0  0  0  0  0  0  0  0  0
    0.8711    8.0673    5.6732 C   0  0  0  0  0  0  0  0  0  0  0  0
    1.1113    9.2144    4.9061 C   0  0  0  0  0  0  0  0  0  0  0  0
    1.2988    9.1200    3.5476 N   0  0  0  0  0  0  0  0  0  0  0  0
    1.1755   10.5942    5.5337 C   0  0  0  0  0  0  0  0  0  0  0  0
    2.1910   10.8325    6.5247 O   0  0  0  0  0  0  0  0  0  0  0  0
    2.3121   11.4140    5.2141 O   0  0  0  0  0  0  0  0  0  0  0  0
   -0.6021    8.7405    7.3778 O   0  0  0  0  0  0  0  0  0  0  0  0
    1.7066    6.9324   -0.6021 C   0  0  0  0  0  0  0  0  0  0  0  0
    3.0339    6.9820   -1.0180 C   0  0  0  0  0  0  0  0  0  0  0  0
    3.3485    7.1795   -2.3047 N   0  3  0  0  0  0  0  0  0  0  0  0
    4.6462    7.2209   -2.6653 F   0  0  0  0  0  0  0  0  0  0  0  0
    2.4439    7.3257   -3.2512 N   0  0  0  0  0  0  0  0  0  0  0  0
    1.1458    7.2834   -2.9414 C   0  0  0  0  0  0  0  0  0  0  0  0
    0.7197    7.1120   -1.6000 C   0  0  0  0  0  0  0  0  0  0  0  0
   -0.6640    7.0973   -1.3387 C   0  0  0  0  0  0  0  0  0  0  0  0
   -1.5954    7.2012   -2.3774 C   0  0  0  0  0  0  0  0  0  0  0  0
   -3.0269    7.0709   -2.0855 C   0  0  0  0  0  0  0  0  0  0  0  0
   -3.4502    6.7283   -0.9968 O   0  0  0  0  0  0  0  0  0  0  0  0
   -3.9365    7.2947   -3.2589 C   0  0  0  0  0  0  0  0  0  0  0  0
   -4.9815    7.9128   -3.1447 O   0  0  0  0  0  0  0  0  0  0  0  0
   -3.3669    6.7211   -4.5288 C   0  0  1  0  0  0  0  0  0  0  0  0
   -2.0389    7.2324   -4.7789 O   0  0  0  0  0  0  0  0  0  0  0  0
   -1.1801    7.2963   -3.7016 C   0  0  0  0  0  0  0  0  0  0  0  0
    0.1971    7.3821   -3.9872 C   0  0  0  0  0  0  0  0  0  0  0  0
    0.6146    7.2736   -5.3393 N   0  0  0  0  0  0  0  0  0  0  0  0
   -3.4468    5.2129   -4.5181 C   0  0  1  0  0  0  0  0  0  0  0  0
   -4.7732    4.6663   -4.3928 O   0  0  0  0  0  0  0  0  0  0  0  0
   -2.5919    4.5303   -5.4461 O   0  0  0  0  0  0  0  0  0  0  0  0
   -2.3661    4.3211   -4.1497 C   0  0  0  0  0  0  0  0  0  0  0  0
   -1.3708    4.4477   -3.4476 O   0  0  0  0  0  0  0  0  0  0  0  0
    0.7293    2.0511    0.3609 C   0  0  0  0  0  0  0  0  0  0  0  0
    1.8716    1.6206    0.2836 O   0  0  0  0  0  0  0  0  0  0  0  0
   -0.3983    1.3911   -0.3805 C   0  0  0  0  0  0  0  0  0  0  0  0
   -0.2552    1.0142   -1.5302 O   0  0  0  0  0  0  0  0  0  0  0  0
   -1.7200    1.2863    0.3318 C   0  0  0  0  0  0  0  0  0  0  0  0
   -2.4562    0.3256    0.2073 O   0  0  0  0  0  0  0  0  0  0  0  0
  1  2  1  0  0  0  0
  2  3  2  0  0  0  0
  3  4  1  0  0  0  0
  3 53  1  0  0  0  0
  4  5  1  0  0  0  0
  5  6  1  6  0  0  0
  5 49  1  0  0  0  0
  6  7  1  0  0  0  0
  7  8  2  0  0  0  0
  7 12  1  0  0  0  0
  8  9  1  0  0  0  0
  8 26  1  0  0  0  0
  9 10  1  0  0  0  0
 10 11  2  0  0  0  0
 10 21  1  0  0  0  0
 11 12  1  0  0  0  0
 11 13  1  0  0  0  0
 13 14  1  0  0  0  0
 13 19  2  0  0  0  0
 14 15  1  0  0  0  0
 15 16  2  0  0  0  0
 15 17  1  0  0  0  0
 17 18  1  0  0  0  0
 18 19  1  0  0  0  0
 18 25  1  0  0  0  0
 19 20  1  0  0  0  0
 20 21  2  0  0  0  0
 20 22  1  0  0  0  0
 22 23  1  0  0  0  0
 22 24  1  0  0  0  0
 23 24  1  0  0  0  0
 26 27  2  0  0  0  0
 26 32  1  0  0  0  0
 27 28  1  0  0  0  0
 28 29  1  0  0  0  0
 28 30  2  0  0  0  0
 30 31  1  0  0  0  0
 31 32  2  0  0  0  0
 31 42  1  0  0  0  0
 32 33  1  0  0  0  0
 33 34  2  0  0  0  0
 34 35  1  0  0  0  0
 34 41  1  0  0  0  0
 35 36  2  0  0  0  0
 35 37  1  0  0  0  0
 37 38  2  0  0  0  0
 39 37  1  1  0  0  0
 39 40  1  0  0  0  0
 39 44  1  0  0  0  0
 40 41  1  0  0  0  0
 41 42  2  0  0  0  0
 42 43  1  0  0  0  0
 44 45  1  1  0  0  0
 44 46  1  0  0  0  0
 44 47  1  0  0  0  0
 46 47  1  0  0  0  0
 47 48  2  0  0  0  0
 49 50  2  0  0  0  0
 49 51  1  0  0  0  0
 51 52  2  0  0  0  0
 51 53  1  0  0  0  0
 53 54  2  0  0  0  0
M  CHG  1  28   1
M  END
$$$$