
 OpenBabel09252022373D

 45 52  0  0  1  0  0  0  0  0999 V2000
    3.2303   -7.5052   -5.4958 O   0  0  0  0  0  0  0  0  0  0  0  0
    2.5491   -7.5966   -4.3148 C   0  0  0  0  0  0  0  0  0  0  0  0
    2.4167   -6.5642   -3.4716 C   0  0  0  0  0  0  0  0  0  0  0  0
    2.9412   -5.3096   -3.7450 O   0  0  0  0  0  0  0  0  0  0  0  0
    2.0871   -4.2246   -3.3269 C   0  0  2  0  0  0  0  0  0  0  0  0
    2.4713   -2.9544   -3.8987 O   0  0  0  0  0  0  0  0  0  0  0  0
    2.3119   -2.8278   -5.2836 C   0  0  0  0  0  0  0  0  0  0  0  0
    2.0375   -1.6508   -5.8966 C   0  0  0  0  0  0  0  0  0  0  0  0
    1.9152   -1.5189   -7.2950 O   0  0  0  0  0  0  0  0  0  0  0  0
    2.0132   -2.6511   -8.1040 C   0  0  0  0  0  0  0  0  0  0  0  0
    2.2896   -3.8453   -7.5686 C   0  0  0  0  0  0  0  0  0  0  0  0
    2.5300   -4.0536   -6.1253 C   0  0  0  0  0  0  0  0  0  0  0  0
    2.3365   -5.0375   -8.4461 C   0  0  0  0  0  0  0  0  0  0  0  0
    2.5373   -6.2082   -7.9416 N   0  0  0  0  0  0  0  0  0  0  0  0
    2.5964   -7.3042   -8.7622 C   0  0  0  0  0  0  0  0  0  0  0  0
    2.7542   -8.4036   -8.2226 O   0  0  0  0  0  0  0  0  0  0  0  0
    2.4818   -7.2339  -10.1310 N   0  0  0  0  0  0  0  0  0  0  0  0
    2.2618   -6.0780  -10.6686 C   0  0  0  0  0  0  0  0  0  0  0  0
    2.1491   -4.8381   -9.8896 C   0  0  0  0  0  0  0  0  0  0  0  0
    1.9116   -3.5941  -10.3586 C   0  0  0  0  0  0  0  0  0  0  0  0
    1.8296   -2.5247   -9.4644 N   0  0  0  0  0  0  0  0  0  0  0  0
    1.7355   -3.2808  -11.7959 C   0  0  0  0  0  0  0  0  0  0  0  0
    0.4506   -3.3584  -12.4323 O   0  0  0  0  0  0  0  0  0  0  0  0
    1.0893   -2.0795  -12.2463 O   0  0  0  0  0  0  0  0  0  0  0  0
    1.8359   -0.3780   -5.1756 C   0  0  0  0  0  0  0  0  0  0  0  0
    0.5466   -0.1083   -4.8728 N   0  0  0  0  0  0  0  0  0  0  0  0
    0.3175    1.0844   -4.3139 C   0  0  0  0  0  0  0  0  0  0  0  0
    1.2287    2.0387   -4.0825 N   0  0  0  0  0  0  0  0  0  0  0  0
    2.4984    1.7552   -4.3876 C   0  0  0  0  0  0  0  0  0  0  0  0
    2.8899    0.5146   -4.9167 C   0  0  0  0  0  0  0  0  0  0  0  0
    4.2631    0.2607   -5.1552 C   0  0  0  0  0  0  0  0  0  0  0  0
    5.2154    1.2465   -4.8942 C   0  0  0  0  0  0  0  0  0  0  0  0
    6.6462    0.9987   -5.1478 C   0  0  0  0  0  0  0  0  0  0  0  0
    7.0395   -0.1092   -5.4955 O   0  0  0  0  0  0  0  0  0  0  0  0
    7.5549    2.1888   -5.0355 C   0  0  0  0  0  0  0  0  0  0  0  0
    7.0232    3.1078   -3.9545 C   0  0  0  0  0  0  0  0  0  0  0  0
    5.6815    3.5330   -4.2147 O   0  0  0  0  0  0  0  0  0  0  0  0
    4.8179    2.4918   -4.4256 C   0  0  0  0  0  0  0  0  0  0  0  0
    3.4660    2.7336   -4.1804 C   0  0  0  0  0  0  0  0  0  0  0  0
    2.1379   -4.2496   -1.8017 C   0  0  0  0  0  0  0  0  0  0  0  0
    2.3868   -3.3094   -1.0628 O   0  0  0  0  0  0  0  0  0  0  0  0
    1.8081   -5.6226   -1.2390 C   0  0  0  0  0  0  0  0  0  0  0  0
    1.6067   -5.7822   -0.0455 O   0  0  0  0  0  0  0  0  0  0  0  0
    1.7196   -6.8044   -2.1846 C   0  0  0  0  0  0  0  0  0  0  0  0
    1.1069   -7.8205   -1.9067 O   0  0  0  0  0  0  0  0  0  0  0  0
  1  2  1  0  0  0  0
  2  3  2  0  0  0  0
  3  4  1  0  0  0  0
  3 44  1  0  0  0  0
  4  5  1  0  0  0  0
  5  6  1  6  0  0  0
  5 40  1  0  0  0  0
  6  7  1  0  0  0  0
  7  8  2  0  0  0  0
  7 12  1  0  0  0  0
  8  9  1  0  0  0  0
  8 25  1  0  0  0  0
  9 10  1  0  0  0  0
 10 11  2  0  0  0  0
 10 21  1  0  0  0  0
 11 12  1  0  0  0  0
 11 13  1  0  0  0  0
 13 14  2  0  0  0  0
 13 19  1  0  0  0  0
 14 15  1  0  0  0  0
 15 16  2  0  0  0  0
 15 17  1  0  0  0  0
 17 18  2  0  0  0  0
 18 19  1  0  0  0  0
 19 20  2  0  0  0  0
 20 21  1  0  0  0  0
 20 22  1  0  0  0  0
 22 23  1  0  0  0  0
 22 24  1  0  0  0  0
 23 24  1  0  0  0  0
 25 26  2  0  0  0  0
 25 30  1  0  0  0  0
 26 27  1  0  0  0  0
 27 28  2  0  0  0  0
 28 29  1  0  0  0  0
 29 30  2  0  0  0  0
 29 39  1  0  0  0  0
 30 31  1  0  0  0  0
 31 32  2  0  0  0  0
 32 33  1  0  0  0  0
 32 38  1  0  0  0  0
 33 34  2  0  0  0  0
 33 35  1  0  0  0  0
 35 36  1  0  0  0  0
 36 37  1  0  0  0  0
 37 38  1  0  0  0  0
 38 39  2  0  0  0  0
 40 41  2  0  0  0  0
 40 42  1  0  0  0  0
 42 43  2  0  0  0  0
 42 44  1  0  0  0  0
 44 45  2  0  0  0  0
M  END
$$$$