
 OpenBabel11222001043D

 54 63  0  0  1  0  0  0  0  0999 V2000
   -1.2668    4.1752   -2.6813 O   0  0  0  0  0  0  0  0  0  0  0  0
   -0.9748    2.8726   -2.3633 C   0  0  0  0  0  0  0  0  0  0  0  0
    0.2839    2.4346   -2.2699 C   0  0  0  0  0  0  0  0  0  0  0  0
    1.3483    3.2710   -2.5655 O   0  0  0  0  0  0  0  0  0  0  0  0
    2.3565    3.2772   -1.5746 C   0  0  2  0  0  0  0  0  0  0  0  0
    3.5317    3.9555   -2.0937 O   0  0  0  0  0  0  0  0  0  0  0  0
    3.7450    5.2939   -1.8172 C   0  0  0  0  0  0  0  0  0  0  0  0
    4.9882    5.8460   -1.7846 C   0  0  0  0  0  0  0  0  0  0  0  0
    5.1315    7.2297   -1.5443 O   0  0  0  0  0  0  0  0  0  0  0  0
    4.0402    8.1009   -1.5485 C   0  0  0  0  0  0  0  0  0  0  0  0
    2.7943    7.6082   -1.6052 C   0  0  0  0  0  0  0  0  0  0  0  0
    2.5159    6.1433   -1.6215 C   0  0  0  0  0  0  0  0  0  0  0  0
    1.5905    8.4839   -1.7198 C   0  0  3  0  0  0  0  0  0  0  0  0
    0.7429    8.2467   -0.6192 O   0  0  0  0  0  0  0  0  0  0  0  0
   -0.4646    8.8882   -0.6813 C   0  0  0  0  0  0  0  0  0  0  0  0
   -1.4247    8.5090   -0.0616 O   0  0  0  0  0  0  0  0  0  0  0  0
   -0.4898    9.9531   -1.5306 O   0  0  0  0  0  0  0  0  0  0  0  0
    0.6843   10.7225   -1.7629 C   0  0  3  0  0  0  0  0  0  0  0  0
    1.9352    9.9170   -1.6600 C   0  0  0  0  0  0  0  0  0  0  0  0
    3.2039   10.3686   -1.5454 C   0  0  0  0  0  0  0  0  0  0  0  0
    4.2700    9.4684   -1.5023 O   0  3  0  0  0  0  0  0  0  0  0  0
    3.5526   11.8117   -1.5099 C   0  0  0  0  0  0  0  0  0  0  0  0
    4.9217   12.2339   -1.4023 O   0  0  0  0  0  0  0  0  0  0  0  0
    4.1922   12.4415   -2.6272 O   0  0  0  0  0  0  0  0  0  0  0  0
    0.6649   11.1679   -3.1035 O   0  0  0  0  0  0  0  0  0  0  0  0
    6.3078    5.0925   -1.9753 C   0  0  0  0  0  0  0  0  0  0  0  0
    6.2956    3.7117   -2.2014 C   0  0  0  0  0  0  0  0  0  0  0  0
    7.4088    2.9990   -2.3851 N   0  3  0  0  0  0  0  0  0  0  0  0
    7.3041    1.6720   -2.5969 F   0  0  0  0  0  0  0  0  0  0  0  0
    8.6007    3.5405   -2.3897 N   0  0  0  0  0  0  0  0  0  0  0  0
    8.7263    4.8500   -2.2035 C   0  0  0  0  0  0  0  0  0  0  0  0
    7.6115    5.6919   -1.9701 C   0  0  0  0  0  0  0  0  0  0  0  0
    7.9090    7.0665   -1.7837 C   0  0  0  0  0  0  0  0  0  0  0  0
    9.2008    7.5882   -1.9114 C   0  0  0  0  0  0  0  0  0  0  0  0
    9.3930    9.0517   -1.9236 C   0  0  0  0  0  0  0  0  0  0  0  0
    8.4261    9.7695   -1.6743 O   0  0  0  0  0  0  0  0  0  0  0  0
   10.7576    9.5009   -2.4057 C   0  0  3  0  0  0  0  0  0  0  0  0
   11.1123   10.8048   -1.9954 O   0  0  0  0  0  0  0  0  0  0  0  0
   12.1685   11.2321   -2.9249 O   0  0  0  0  0  0  0  0  0  0  0  0
   13.3628   10.4348   -2.6794 C   0  0  3  0  0  0  0  0  0  0  0  0
   13.1590    9.0123   -2.1994 C   0  0  2  0  0  0  0  0  0  0  0  0
   11.7810    8.5305   -1.8263 C   0  0  2  0  0  0  0  0  0  0  0  0
   11.5505    7.1927   -2.3167 O   0  0  0  0  0  0  0  0  0  0  0  0
   10.2701    6.7503   -2.1448 C   0  0  0  0  0  0  0  0  0  0  0  0
   10.0137    5.3887   -2.2730 C   0  0  0  0  0  0  0  0  0  0  0  0
   11.0408    4.5569   -2.5084 F   0  0  0  0  0  0  0  0  0  0  0  0
   14.1283    8.0243   -2.5682 O   0  0  0  0  0  0  0  0  0  0  0  0
   13.6498   10.0446   -1.3323 O   0  0  0  0  0  0  0  0  0  0  0  0
    2.8574    1.9040   -1.1478 C   0  0  0  0  0  0  0  0  0  0  0  0
    3.8758    1.7232   -0.4897 O   0  0  0  0  0  0  0  0  0  0  0  0
    2.0106    0.7616   -1.6494 C   0  0  0  0  0  0  0  0  0  0  0  0
    2.5419   -0.2967   -1.9376 O   0  0  0  0  0  0  0  0  0  0  0  0
    0.5396    1.0176   -1.8911 C   0  0  0  0  0  0  0  0  0  0  0  0
   -0.3086    0.1614   -1.7390 O   0  0  0  0  0  0  0  0  0  0  0  0
  1  2  1  0  0  0  0
  2  3  2  0  0  0  0
  3  4  1  0  0  0  0
  3 53  1  0  0  0  0
  4  5  1  0  0  0  0
  5  6  1  6  0  0  0
  5 49  1  0  0  0  0
  6  7  1  0  0  0  0
  7  8  2  0  0  0  0
  7 12  1  0  0  0  0
  8  9  1  0  0  0  0
  8 26  1  0  0  0  0
  9 10  1  0  0  0  0
 10 11  2  0  0  0  0
 10 21  1  0  0  0  0
 11 12  1  0  0  0  0
 11 13  1  0  0  0  0
 13 14  1  0  0  0  0
 13 19  1  0  0  0  0
 14 15  1  0  0  0  0
 15 16  2  0  0  0  0
 15 17  1  0  0  0  0
 17 18  1  0  0  0  0
 18 19  1  0  0  0  0
 18 25  1  0  0  0  0
 19 20  2  0  0  0  0
 20 21  1  0  0  0  0
 20 22  1  0  0  0  0
 22 23  1  0  0  0  0
 22 24  1  0  0  0  0
 23 24  1  0  0  0  0
 26 27  2  0  0  0  0
 26 32  1  0  0  0  0
 27 28  1  0  0  0  0
 28 29  1  0  0  0  0
 28 30  2  0  0  0  0
 30 31  1  0  0  0  0
 31 32  2  0  0  0  0
 31 45  1  0  0  0  0
 32 33  1  0  0  0  0
 33 34  2  0  0  0  0
 34 35  1  0  0  0  0
 34 44  1  0  0  0  0
 35 36  2  0  0  0  0
 35 37  1  0  0  0  0
 37 38  1  0  0  0  0
 37 42  1  0  0  0  0
 38 39  1  0  0  0  0
 39 40  1  0  0  0  0
 40 41  1  0  0  0  0
 40 48  1  0  0  0  0
 41 42  1  0  0  0  0
 41 47  1  1  0  0  0
 41 48  1  0  0  0  0
 42 43  1  6  0  0  0
 43 44  1  0  0  0  0
 44 45  2  0  0  0  0
 45 46  1  0  0  0  0
 49 50  2  0  0  0  0
 49 51  1  0  0  0  0
 51 52  2  0  0  0  0
 51 53  1  0  0  0  0
 53 54  2  0  0  0  0
M  CHG  2  21   1  28   1
M  END
$$$$