
 OpenBabel11242000363D

 54 63  0  0  1  0  0  0  0  0999 V2000
   -4.5229  -18.7489   -5.7850 O   0  0  0  0  0  0  0  0  0  0  0  0
   -4.2706  -19.1265   -4.4901 C   0  0  0  0  0  0  0  0  0  0  0  0
   -3.9090  -18.2580   -3.5376 C   0  0  0  0  0  0  0  0  0  0  0  0
   -3.7380  -16.9126   -3.8306 O   0  0  0  0  0  0  0  0  0  0  0  0
   -4.1417  -16.0565   -2.7770 C   0  0  2  0  0  0  0  0  0  0  0  0
   -3.9880  -14.6671   -3.1389 O   0  0  0  0  0  0  0  0  0  0  0  0
   -5.0271  -14.0551   -3.8192 C   0  0  0  0  0  0  0  0  0  0  0  0
   -5.2503  -12.7255   -3.6860 C   0  0  0  0  0  0  0  0  0  0  0  0
   -6.3325  -12.1048   -4.3161 N   0  0  0  0  0  0  0  0  0  0  0  0
   -7.2285  -12.8073   -5.1191 C   0  0  0  0  0  0  0  0  0  0  0  0
   -7.0577  -14.1258   -5.3481 C   0  0  0  0  0  0  0  0  0  0  0  0
   -5.8919  -14.8895   -4.7563 C   0  0  0  0  0  0  0  0  0  0  0  0
   -8.0076  -14.9171   -6.2099 C   0  0  3  0  0  0  0  0  0  0  0  0
   -8.5131  -16.0061   -5.4533 O   0  0  0  0  0  0  0  0  0  0  0  0
   -9.3106  -16.8618   -6.1576 C   0  0  0  0  0  0  0  0  0  0  0  0
   -9.5108  -18.0079   -5.7969 O   0  0  0  0  0  0  0  0  0  0  0  0
   -9.8179  -16.3348   -7.3021 O   0  0  0  0  0  0  0  0  0  0  0  0
  -10.2254  -14.9764   -7.2491 C   0  0  3  0  0  0  0  0  0  0  0  0
   -9.1970  -14.1179   -6.5908 C   0  0  0  0  0  0  0  0  0  0  0  0
   -9.3203  -12.8018   -6.3105 C   0  0  0  0  0  0  0  0  0  0  0  0
   -8.3076  -12.1235   -5.6428 O   0  3  0  0  0  0  0  0  0  0  0  0
  -10.5279  -12.0045   -6.6351 C   0  0  0  0  0  0  0  0  0  0  0  0
  -11.6063  -11.8956   -5.6963 O   0  0  0  0  0  0  0  0  0  0  0  0
  -10.7698  -10.7542   -5.9640 O   0  0  0  0  0  0  0  0  0  0  0  0
  -10.3321  -14.4775   -8.5675 O   0  0  0  0  0  0  0  0  0  0  0  0
   -4.4190  -11.9019   -2.7624 C   0  0  0  0  0  0  0  0  0  0  0  0
   -4.8025  -11.8822   -1.4202 C   0  0  0  0  0  0  0  0  0  0  0  0
   -4.1337  -11.1504   -0.5238 N   0  3  0  0  0  0  0  0  0  0  0  0
   -4.5380  -11.1500    0.7609 F   0  0  0  0  0  0  0  0  0  0  0  0
   -3.1022  -10.4019   -0.8526 N   0  0  0  0  0  0  0  0  0  0  0  0
   -2.6357  -10.4270   -2.1014 C   0  0  0  0  0  0  0  0  0  0  0  0
   -3.2509  -11.1846   -3.1237 C   0  0  0  0  0  0  0  0  0  0  0  0
   -2.6379  -11.1921   -4.4073 C   0  0  0  0  0  0  0  0  0  0  0  0
   -1.4325  -10.5016   -4.6372 C   0  0  0  0  0  0  0  0  0  0  0  0
   -0.8589   -9.7527   -3.6255 C   0  0  0  0  0  0  0  0  0  0  0  0
   -1.4841   -9.6970   -2.3867 C   0  0  0  0  0  0  0  0  0  0  0  0
   -0.9289   -8.9570   -1.4146 F   0  0  0  0  0  0  0  0  0  0  0  0
    0.3221   -9.0792   -3.7969 O   0  0  0  0  0  0  0  0  0  0  0  0
    1.2479   -9.8105   -4.6395 C   0  0  1  0  0  0  0  0  0  0  0  0
    0.7392  -10.1727   -5.9754 C   0  0  0  0  0  0  0  0  0  0  0  0
    1.4222  -10.2650   -6.9784 O   0  0  0  0  0  0  0  0  0  0  0  0
   -0.7300  -10.5881   -5.9303 C   0  0  0  0  0  0  0  0  0  0  0  0
   -1.3179  -11.0325   -6.9029 O   0  0  0  0  0  0  0  0  0  0  0  0
    2.6051   -9.4713   -4.5242 O   0  0  0  0  0  0  0  0  0  0  0  0
    2.2108  -10.7782   -4.0068 C   0  0  1  0  0  0  0  0  0  0  0  0
    1.8106  -10.8794   -2.5924 O   0  0  0  0  0  0  0  0  0  0  0  0
    3.0794  -11.0626   -2.8896 C   0  0  0  0  0  0  0  0  0  0  0  0
    3.8088  -12.0003   -2.6328 O   0  0  0  0  0  0  0  0  0  0  0  0
   -3.3135  -16.2774   -1.5278 C   0  0  0  0  0  0  0  0  0  0  0  0
   -2.8815  -15.3800   -0.8146 O   0  0  0  0  0  0  0  0  0  0  0  0
   -3.2049  -17.7397   -1.1644 C   0  0  0  0  0  0  0  0  0  0  0  0
   -2.8012  -18.0560   -0.0584 O   0  0  0  0  0  0  0  0  0  0  0  0
   -3.6973  -18.7815   -2.1542 C   0  0  0  0  0  0  0  0  0  0  0  0
   -3.9732  -19.9155   -1.8049 O   0  0  0  0  0  0  0  0  0  0  0  0
  1  2  1  0  0  0  0
  2  3  2  0  0  0  0
  3  4  1  0  0  0  0
  3 53  1  0  0  0  0
  4  5  1  0  0  0  0
  5  6  1  6  0  0  0
  5 49  1  0  0  0  0
  6  7  1  0  0  0  0
  7  8  2  0  0  0  0
  7 12  1  0  0  0  0
  8  9  1  0  0  0  0
  8 26  1  0  0  0  0
  9 10  1  0  0  0  0
 10 11  2  0  0  0  0
 10 21  1  0  0  0  0
 11 12  1  0  0  0  0
 11 13  1  0  0  0  0
 13 14  1  0  0  0  0
 13 19  1  0  0  0  0
 14 15  1  0  0  0  0
 15 16  2  0  0  0  0
 15 17  1  0  0  0  0
 17 18  1  0  0  0  0
 18 19  1  0  0  0  0
 18 25  1  0  0  0  0
 19 20  2  0  0  0  0
 20 21  1  0  0  0  0
 20 22  1  0  0  0  0
 22 23  1  0  0  0  0
 22 24  1  0  0  0  0
 23 24  1  0  0  0  0
 26 27  2  0  0  0  0
 26 32  1  0  0  0  0
 27 28  1  0  0  0  0
 28 29  1  0  0  0  0
 28 30  2  0  0  0  0
 30 31  1  0  0  0  0
 31 32  2  0  0  0  0
 31 36  1  0  0  0  0
 32 33  1  0  0  0  0
 33 34  2  0  0  0  0
 34 35  1  0  0  0  0
 34 42  1  0  0  0  0
 35 36  2  0  0  0  0
 35 38  1  0  0  0  0
 36 37  1  0  0  0  0
 39 38  1  1  0  0  0
 39 40  1  0  0  0  0
 39 44  1  0  0  0  0
 39 45  1  0  0  0  0
 40 41  2  0  0  0  0
 40 42  1  0  0  0  0
 42 43  2  0  0  0  0
 45 44  1  1  0  0  0
 45 46  1  0  0  0  0
 45 47  1  0  0  0  0
 46 47  1  0  0  0  0
 47 48  2  0  0  0  0
 49 50  2  0  0  0  0
 49 51  1  0  0  0  0
 51 52  2  0  0  0  0
 51 53  1  0  0  0  0
 53 54  2  0  0  0  0
M  CHG  2  21   1  28   1
M  END
$$$$