
 OpenBabel11222001023D

 54 62  0  0  1  0  0  0  0  0999 V2000
    2.2761   -0.4863   -4.2068 O   0  0  0  0  0  0  0  0  0  0  0  0
    2.6395   -0.0806   -2.9497 C   0  0  0  0  0  0  0  0  0  0  0  0
    2.5573   -0.8654   -1.8678 C   0  0  0  0  0  0  0  0  0  0  0  0
    2.0250   -2.1422   -1.9326 O   0  0  0  0  0  0  0  0  0  0  0  0
    2.7252   -3.1054   -1.1703 C   0  0  2  0  0  0  0  0  0  0  0  0
    2.0388   -4.3889   -1.2177 O   0  0  0  0  0  0  0  0  0  0  0  0
    2.3760   -5.3267   -2.1933 C   0  0  0  0  0  0  0  0  0  0  0  0
    2.1790   -6.6567   -1.9924 C   0  0  0  0  0  0  0  0  0  0  0  0
    2.4096   -7.5934   -3.0101 O   0  0  0  0  0  0  0  0  0  0  0  0
    2.7336   -7.1872   -4.3016 C   0  0  0  0  0  0  0  0  0  0  0  0
    3.0408   -5.9049   -4.5540 C   0  0  0  0  0  0  0  0  0  0  0  0
    2.9464   -4.8336   -3.5057 C   0  0  0  0  0  0  0  0  0  0  0  0
    3.5159   -5.4534   -5.9042 C   0  0  3  0  0  0  0  0  0  0  0  0
    4.8597   -5.0435   -5.7233 O   0  0  0  0  0  0  0  0  0  0  0  0
    5.5860   -4.7095   -6.8176 C   0  0  0  0  0  0  0  0  0  0  0  0
    6.6682   -4.1334   -6.7041 O   0  0  0  0  0  0  0  0  0  0  0  0
    5.0638   -5.0443   -8.0130 O   0  0  0  0  0  0  0  0  0  0  0  0
    4.0635   -6.0481   -8.1817 C   0  0  3  0  0  0  0  0  0  0  0  0
    3.5364   -6.5582   -6.8850 C   0  0  0  0  0  0  0  0  0  0  0  0
    3.1480   -7.8194   -6.5894 C   0  0  0  0  0  0  0  0  0  0  0  0
    2.7510   -8.1438   -5.2982 O   0  3  0  0  0  0  0  0  0  0  0  0
    3.1497   -8.9289   -7.5701 C   0  0  0  0  0  0  0  0  0  0  0  0
    4.3574   -9.3753   -8.1991 O   0  0  0  0  0  0  0  0  0  0  0  0
    3.7098  -10.2030   -7.2142 O   0  0  0  0  0  0  0  0  0  0  0  0
    2.9495   -5.4749   -8.8343 O   0  0  0  0  0  0  0  0  0  0  0  0
    1.7598   -7.2676   -0.6795 C   0  0  0  0  0  0  0  0  0  0  0  0
    2.1751   -6.6482    0.4998 C   0  0  0  0  0  0  0  0  0  0  0  0
    1.8507   -7.1206    1.7039 N   0  3  0  0  0  0  0  0  0  0  0  0
    2.2819   -6.4663    2.8000 F   0  0  0  0  0  0  0  0  0  0  0  0
    1.1434   -8.2183    1.8617 N   0  0  0  0  0  0  0  0  0  0  0  0
    0.7620   -8.9167    0.7915 C   0  0  0  0  0  0  0  0  0  0  0  0
    1.0570   -8.4958   -0.5253 C   0  0  0  0  0  0  0  0  0  0  0  0
    0.6547   -9.3554   -1.5788 C   0  0  0  0  0  0  0  0  0  0  0  0
    0.0473  -10.5920   -1.3361 C   0  0  0  0  0  0  0  0  0  0  0  0
   -0.1655  -11.5405   -2.4455 C   0  0  0  0  0  0  0  0  0  0  0  0
    0.2632  -11.2618   -3.5653 O   0  0  0  0  0  0  0  0  0  0  0  0
   -0.7916  -12.8753   -2.0636 C   0  0  3  0  0  0  0  0  0  0  0  0
   -1.4091  -13.5391   -3.1471 O   0  0  0  0  0  0  0  0  0  0  0  0
   -1.7376  -12.6708   -0.8721 C   0  0  1  0  0  0  0  0  0  0  0  0
   -1.0010  -12.0959    0.2458 O   0  0  0  0  0  0  0  0  0  0  0  0
   -0.3113  -10.9524   -0.0529 C   0  0  0  0  0  0  0  0  0  0  0  0
    0.0617  -10.1100    0.9920 C   0  0  0  0  0  0  0  0  0  0  0  0
   -0.2529  -10.4644    2.2482 F   0  0  0  0  0  0  0  0  0  0  0  0
   -3.0113  -11.8723   -1.0953 C   0  0  1  0  0  0  0  0  0  0  0  0
   -3.8511  -11.7214    0.0679 O   0  0  0  0  0  0  0  0  0  0  0  0
   -2.8629  -10.6884   -1.8843 O   0  0  0  0  0  0  0  0  0  0  0  0
   -3.7192  -11.7043   -2.4276 C   0  0  3  0  0  0  0  0  0  0  0  0
   -5.1175  -11.3856   -2.3710 O   0  0  0  0  0  0  0  0  0  0  0  0
    2.9046   -2.7405    0.3044 C   0  0  0  0  0  0  0  0  0  0  0  0
    3.0018   -3.5704    1.2052 O   0  0  0  0  0  0  0  0  0  0  0  0
    3.0723   -1.2607    0.5661 C   0  0  0  0  0  0  0  0  0  0  0  0
    3.2727   -0.8760    1.7071 O   0  0  0  0  0  0  0  0  0  0  0  0
    3.0234   -0.2792   -0.5807 C   0  0  0  0  0  0  0  0  0  0  0  0
    3.3796    0.8783   -0.4459 O   0  0  0  0  0  0  0  0  0  0  0  0
  1  2  1  0  0  0  0
  2  3  2  0  0  0  0
  3  4  1  0  0  0  0
  3 53  1  0  0  0  0
  4  5  1  0  0  0  0
  5  6  1  1  0  0  0
  5 49  1  0  0  0  0
  6  7  1  0  0  0  0
  7  8  2  0  0  0  0
  7 12  1  0  0  0  0
  8  9  1  0  0  0  0
  8 26  1  0  0  0  0
  9 10  1  0  0  0  0
 10 11  2  0  0  0  0
 10 21  1  0  0  0  0
 11 12  1  0  0  0  0
 11 13  1  0  0  0  0
 13 14  1  0  0  0  0
 13 19  1  0  0  0  0
 14 15  1  0  0  0  0
 15 16  2  0  0  0  0
 15 17  1  0  0  0  0
 17 18  1  0  0  0  0
 18 19  1  0  0  0  0
 18 25  1  0  0  0  0
 19 20  2  0  0  0  0
 20 21  1  0  0  0  0
 20 22  1  0  0  0  0
 22 23  1  0  0  0  0
 22 24  1  0  0  0  0
 23 24  1  0  0  0  0
 26 27  2  0  0  0  0
 26 32  1  0  0  0  0
 27 28  1  0  0  0  0
 28 29  1  0  0  0  0
 28 30  2  0  0  0  0
 30 31  1  0  0  0  0
 31 32  2  0  0  0  0
 31 42  1  0  0  0  0
 32 33  1  0  0  0  0
 33 34  2  0  0  0  0
 34 35  1  0  0  0  0
 34 41  1  0  0  0  0
 35 36  2  0  0  0  0
 35 37  1  0  0  0  0
 37 38  1  0  0  0  0
 37 39  1  0  0  0  0
 39 40  1  1  0  0  0
 39 44  1  0  0  0  0
 40 41  1  0  0  0  0
 41 42  2  0  0  0  0
 42 43  1  0  0  0  0
 44 45  1  1  0  0  0
 44 46  1  0  0  0  0
 44 47  1  0  0  0  0
 46 47  1  0  0  0  0
 47 48  1  0  0  0  0
 49 50  2  0  0  0  0
 49 51  1  0  0  0  0
 51 52  2  0  0  0  0
 51 53  1  0  0  0  0
 53 54  2  0  0  0  0
M  CHG  2  21   1  28   1
M  END
$$$$