
 OpenBabel11212002033D

 54 62  0  0  1  0  0  0  0  0999 V2000
   -1.4173   -0.9626   -4.8532 O   0  0  0  0  0  0  0  0  0  0  0  0
   -1.0751   -0.2543   -3.7285 C   0  0  0  0  0  0  0  0  0  0  0  0
   -0.2008   -0.7117   -2.8238 C   0  0  0  0  0  0  0  0  0  0  0  0
    0.3550   -1.9712   -2.9640 O   0  0  0  0  0  0  0  0  0  0  0  0
    1.6931   -2.1127   -2.4911 C   0  0  2  0  0  0  0  0  0  0  0  0
    2.1608   -3.4558   -2.7051 O   0  0  0  0  0  0  0  0  0  0  0  0
    2.2270   -3.8866   -4.0263 C   0  0  0  0  0  0  0  0  0  0  0  0
    2.0581   -5.1859   -4.3535 C   0  0  0  0  0  0  0  0  0  0  0  0
    2.1189   -5.6567   -5.6674 O   0  0  0  0  0  0  0  0  0  0  0  0
    2.4631   -4.7781   -6.6962 C   0  0  0  0  0  0  0  0  0  0  0  0
    2.7274   -3.4829   -6.4485 C   0  0  0  0  0  0  0  0  0  0  0  0
    2.5774   -2.8805   -5.0866 C   0  0  0  0  0  0  0  0  0  0  0  0
    3.1577   -2.5320   -7.5235 C   0  0  3  0  0  0  0  0  0  0  0  0
    4.4931   -2.1518   -7.2413 O   0  0  0  0  0  0  0  0  0  0  0  0
    5.1537   -1.3762   -8.1409 C   0  0  0  0  0  0  0  0  0  0  0  0
    6.1836   -0.7941   -7.8410 O   0  0  0  0  0  0  0  0  0  0  0  0
    4.6259   -1.3154   -9.3876 O   0  0  0  0  0  0  0  0  0  0  0  0
    3.5692   -2.1457   -9.8569 C   0  0  3  0  0  0  0  0  0  0  0  0
    3.1631   -3.1679   -8.8583 C   0  0  0  0  0  0  0  0  0  0  0  0
    2.8420   -4.4673   -9.0577 C   0  0  0  0  0  0  0  0  0  0  0  0
    2.5218   -5.2829   -7.9763 O   0  3  0  0  0  0  0  0  0  0  0  0
    2.8200   -5.1096  -10.3943 C   0  0  0  0  0  0  0  0  0  0  0  0
    3.9877   -5.7448  -10.9293 O   0  0  0  0  0  0  0  0  0  0  0  0
    2.8574   -6.5413  -10.5242 O   0  0  0  0  0  0  0  0  0  0  0  0
    2.4196   -1.3487  -10.0675 O   0  0  0  0  0  0  0  0  0  0  0  0
    1.8225   -6.2274   -3.3334 C   0  0  0  0  0  0  0  0  0  0  0  0
    2.9245   -6.8346   -2.7503 C   0  0  0  0  0  0  0  0  0  0  0  0
    2.8133   -7.7539   -1.7807 N   0  0  0  0  0  0  0  0  0  0  0  0
    1.5757   -8.0820   -1.3044 N   0  0  0  0  0  0  0  0  0  0  0  0
    0.4596   -7.5232   -1.8008 C   0  0  0  0  0  0  0  0  0  0  0  0
    0.5396   -6.5955   -2.8619 C   0  0  0  0  0  0  0  0  0  0  0  0
   -0.6616   -6.0805   -3.3991 C   0  0  0  0  0  0  0  0  0  0  0  0
   -1.9081   -6.4384   -2.8671 C   0  0  0  0  0  0  0  0  0  0  0  0
   -3.1347   -5.9462   -3.4986 C   0  0  0  0  0  0  0  0  0  0  0  0
   -3.0885   -5.3396   -4.5588 O   0  0  0  0  0  0  0  0  0  0  0  0
   -4.4444   -6.2515   -2.8109 C   0  0  0  0  0  0  0  0  0  0  0  0
   -5.5040   -5.9815   -3.3586 O   0  0  0  0  0  0  0  0  0  0  0  0
   -4.3134   -6.8287   -1.4211 C   0  0  1  0  0  0  0  0  0  0  0  0
   -3.1665   -7.6597   -1.1993 O   0  0  0  0  0  0  0  0  0  0  0  0
   -1.9909   -7.2894   -1.7814 C   0  0  0  0  0  0  0  0  0  0  0  0
   -0.8021   -7.8354   -1.2866 C   0  0  0  0  0  0  0  0  0  0  0  0
   -0.8782   -8.7261   -0.2277 N   0  3  0  0  0  0  0  0  0  0  0  0
   -0.9574   -9.4187    0.5958 O   0  3  0  0  0  0  0  0  0  0  0  0
   -4.3894   -5.7590   -0.3686 C   0  0  1  0  0  0  0  0  0  0  0  0
   -3.3767   -4.7271   -0.4054 O   0  0  0  0  0  0  0  0  0  0  0  0
   -5.6949   -5.2865   -0.0310 O   0  0  0  0  0  0  0  0  0  0  0  0
   -5.0622   -6.0245    0.8983 C   0  0  0  0  0  0  0  0  0  0  0  0
   -5.3923   -7.0525    1.4474 O   0  0  0  0  0  0  0  0  0  0  0  0
    1.7688   -1.7321   -1.0245 C   0  0  0  0  0  0  0  0  0  0  0  0
    2.1953   -2.4140   -0.1086 O   0  0  0  0  0  0  0  0  0  0  0  0
    1.2631   -0.3332   -0.8025 C   0  0  0  0  0  0  0  0  0  0  0  0
    1.8470    0.4142   -0.0361 O   0  0  0  0  0  0  0  0  0  0  0  0
    0.1141    0.1626   -1.6550 C   0  0  0  0  0  0  0  0  0  0  0  0
   -0.4692    1.2041   -1.4078 O   0  0  0  0  0  0  0  0  0  0  0  0
  1  2  1  0  0  0  0
  2  3  2  0  0  0  0
  3  4  1  0  0  0  0
  3 53  1  0  0  0  0
  4  5  1  0  0  0  0
  5  6  1  1  0  0  0
  5 49  1  0  0  0  0
  6  7  1  0  0  0  0
  7  8  2  0  0  0  0
  7 12  1  0  0  0  0
  8  9  1  0  0  0  0
  8 26  1  0  0  0  0
  9 10  1  0  0  0  0
 10 11  2  0  0  0  0
 10 21  1  0  0  0  0
 11 12  1  0  0  0  0
 11 13  1  0  0  0  0
 13 14  1  0  0  0  0
 13 19  1  0  0  0  0
 14 15  1  0  0  0  0
 15 16  2  0  0  0  0
 15 17  1  0  0  0  0
 17 18  1  0  0  0  0
 18 19  1  0  0  0  0
 18 25  1  0  0  0  0
 19 20  2  0  0  0  0
 20 21  1  0  0  0  0
 20 22  1  0  0  0  0
 22 23  1  0  0  0  0
 22 24  1  0  0  0  0
 23 24  1  0  0  0  0
 26 27  2  0  0  0  0
 26 31  1  0  0  0  0
 27 28  1  0  0  0  0
 28 29  2  0  0  0  0
 29 30  1  0  0  0  0
 30 31  2  0  0  0  0
 30 41  1  0  0  0  0
 31 32  1  0  0  0  0
 32 33  2  0  0  0  0
 33 34  1  0  0  0  0
 33 40  1  0  0  0  0
 34 35  2  0  0  0  0
 34 36  1  0  0  0  0
 36 37  2  0  0  0  0
 38 36  1  6  0  0  0
 38 39  1  0  0  0  0
 38 44  1  0  0  0  0
 39 40  1  0  0  0  0
 40 41  2  0  0  0  0
 41 42  1  0  0  0  0
 42 43  3  0  0  0  0
 44 45  1  1  0  0  0
 44 46  1  0  0  0  0
 44 47  1  0  0  0  0
 46 47  1  0  0  0  0
 47 48  2  0  0  0  0
 49 50  2  0  0  0  0
 49 51  1  0  0  0  0
 51 52  2  0  0  0  0
 51 53  1  0  0  0  0
 53 54  2  0  0  0  0
M  CHG  3  21   1  42   1  43   1
M  END
$$$$