
 OpenBabel11152013223D

 53 61  0  0  1  0  0  0  0  0999 V2000
   -0.7985    4.3083   -3.2069 O   0  0  0  0  0  0  0  0  0  0  0  0
   -0.4446    3.6685   -2.0468 C   0  0  0  0  0  0  0  0  0  0  0  0
    0.2902    2.5512   -2.0369 C   0  0  0  0  0  0  0  0  0  0  0  0
    0.6936    1.9595   -3.2182 O   0  0  0  0  0  0  0  0  0  0  0  0
    2.0483    1.5180   -3.1359 C   0  0  2  0  0  0  0  0  0  0  0  0
    2.5508    1.1751   -4.4267 O   0  0  0  0  0  0  0  0  0  0  0  0
    2.5372    2.1982   -5.3732 C   0  0  0  0  0  0  0  0  0  0  0  0
    2.4038    1.9239   -6.6859 C   0  0  0  0  0  0  0  0  0  0  0  0
    2.3783    2.8981   -7.6729 O   0  0  0  0  0  0  0  0  0  0  0  0
    2.4666    4.2378   -7.3163 C   0  0  0  0  0  0  0  0  0  0  0  0
    2.6416    4.6189   -6.0402 C   0  0  0  0  0  0  0  0  0  0  0  0
    2.7372    3.6246   -4.9252 C   0  0  0  0  0  0  0  0  0  0  0  0
    2.7067    6.0646   -5.6542 C   0  0  3  0  0  0  0  0  0  0  0  0
    3.9600    6.2806   -5.0160 O   0  0  0  0  0  0  0  0  0  0  0  0
    4.3911    7.5408   -4.7600 C   0  0  0  0  0  0  0  0  0  0  0  0
    5.3219    7.7492   -3.9957 O   0  0  0  0  0  0  0  0  0  0  0  0
    3.7739    8.5542   -5.4128 O   0  0  0  0  0  0  0  0  0  0  0  0
    2.7300    8.3774   -6.3633 C   0  0  3  0  0  0  0  0  0  0  0  0
    2.6099    6.9743   -6.8103 C   0  0  0  0  0  0  0  0  0  0  0  0
    2.4398    6.5342   -8.0744 C   0  0  0  0  0  0  0  0  0  0  0  0
    2.3630    5.1649   -8.3433 O   0  0  0  0  0  0  0  0  0  0  0  0
    2.3092    7.4161   -9.2523 C   0  0  0  0  0  0  0  0  0  0  0  0
    1.4231    7.1082  -10.3404 O   0  0  0  0  0  0  0  0  0  0  0  0
    1.1367    8.2181   -9.4679 O   0  0  0  0  0  0  0  0  0  0  0  0
    1.5023    8.7517   -5.7647 O   0  0  0  0  0  0  0  0  0  0  0  0
    2.2775    0.5522   -7.1966 C   0  0  0  0  0  0  0  0  0  0  0  0
    3.4487   -0.0236   -7.5376 N   0  0  0  0  0  0  0  0  0  0  0  0
    3.4459   -1.2523   -7.9589 N   0  0  0  0  0  0  0  0  0  0  0  0
    2.3409   -1.9590   -8.0442 N   0  0  0  0  0  0  0  0  0  0  0  0
    1.1512   -1.4244   -7.7238 C   0  0  0  0  0  0  0  0  0  0  0  0
    1.0542   -0.1054   -7.2951 C   0  0  0  0  0  0  0  0  0  0  0  0
   -0.2151    0.4650   -7.0058 C   0  0  0  0  0  0  0  0  0  0  0  0
   -1.3767   -0.3019   -7.1254 C   0  0  0  0  0  0  0  0  0  0  0  0
   -2.6941    0.3025   -6.8992 C   0  0  0  0  0  0  0  0  0  0  0  0
   -2.8328    1.4780   -6.6057 O   0  0  0  0  0  0  0  0  0  0  0  0
   -3.8888   -0.6157   -7.0125 C   0  0  0  0  0  0  0  0  0  0  0  0
   -5.0290   -0.1783   -7.0595 O   0  0  0  0  0  0  0  0  0  0  0  0
   -3.5552   -2.0810   -6.8898 C   0  0  1  0  0  0  0  0  0  0  0  0
   -2.3646   -2.4781   -7.5884 O   0  0  0  0  0  0  0  0  0  0  0  0
   -1.2915   -1.6343   -7.4846 C   0  0  0  0  0  0  0  0  0  0  0  0
   -0.0353   -2.1710   -7.8020 C   0  0  0  0  0  0  0  0  0  0  0  0
    0.0312   -3.4885   -8.2031 O   0  0  0  0  0  0  0  0  0  0  0  0
   -3.5253   -2.5521   -5.4632 C   0  0  1  0  0  0  0  0  0  0  0  0
   -3.1845   -3.9446   -5.2675 O   0  0  0  0  0  0  0  0  0  0  0  0
   -2.9613   -1.6375   -4.5278 O   0  0  0  0  0  0  0  0  0  0  0  0
   -4.2713   -1.9304   -4.3684 C   0  0  0  0  0  0  0  0  0  0  0  0
   -4.8307   -2.4310   -3.4169 O   0  0  0  0  0  0  0  0  0  0  0  0
    2.0738    0.3395   -2.1561 C   0  0  0  0  0  0  0  0  0  0  0  0
    2.6411   -0.7291   -2.3938 O   0  0  0  0  0  0  0  0  0  0  0  0
    1.4322    0.6168   -0.8093 C   0  0  3  0  0  0  0  0  0  0  0  0
    0.7002    1.9410   -0.7326 C   0  0  0  0  0  0  0  0  0  0  0  0
    0.4682    2.5070    0.3344 O   0  0  0  0  0  0  0  0  0  0  0  0
    0.2781   -0.7298   -0.3875 S   0  0  0  0  0  0  0  0  0  0  0  0
  1  2  1  0  0  0  0
  2  3  2  0  0  0  0
  3  4  1  0  0  0  0
  3 51  1  0  0  0  0
  4  5  1  0  0  0  0
  5  6  1  6  0  0  0
  5 48  1  0  0  0  0
  6  7  1  0  0  0  0
  7  8  2  0  0  0  0
  7 12  1  0  0  0  0
  8  9  1  0  0  0  0
  8 26  1  0  0  0  0
  9 10  1  0  0  0  0
 10 11  2  0  0  0  0
 10 21  1  0  0  0  0
 11 12  1  0  0  0  0
 11 13  1  0  0  0  0
 13 14  1  0  0  0  0
 13 19  1  0  0  0  0
 14 15  1  0  0  0  0
 15 16  2  0  0  0  0
 15 17  1  0  0  0  0
 17 18  1  0  0  0  0
 18 19  1  0  0  0  0
 18 25  1  0  0  0  0
 19 20  2  0  0  0  0
 20 21  1  0  0  0  0
 20 22  1  0  0  0  0
 22 23  1  0  0  0  0
 22 24  1  0  0  0  0
 23 24  1  0  0  0  0
 26 27  2  0  0  0  0
 26 31  1  0  0  0  0
 27 28  1  0  0  0  0
 28 29  2  0  0  0  0
 29 30  1  0  0  0  0
 30 31  2  0  0  0  0
 30 41  1  0  0  0  0
 31 32  1  0  0  0  0
 32 33  2  0  0  0  0
 33 34  1  0  0  0  0
 33 40  1  0  0  0  0
 34 35  2  0  0  0  0
 34 36  1  0  0  0  0
 36 37  2  0  0  0  0
 38 36  1  1  0  0  0
 38 39  1  0  0  0  0
 38 43  1  0  0  0  0
 39 40  1  0  0  0  0
 40 41  2  0  0  0  0
 41 42  1  0  0  0  0
 43 44  1  1  0  0  0
 43 45  1  0  0  0  0
 43 46  1  0  0  0  0
 45 46  1  0  0  0  0
 46 47  2  0  0  0  0
 48 49  2  0  0  0  0
 48 50  1  0  0  0  0
 50 51  1  0  0  0  0
 50 53  1  0  0  0  0
 51 52  2  0  0  0  0
M  END
$$$$