
 OpenBabel11272002433D

 54 62  0  0  1  0  0  0  0  0999 V2000
    7.1679   -1.9557    5.7715 O   0  0  0  0  0  0  0  0  0  0  0  0
    7.1365   -0.7762    5.0656 C   0  0  0  0  0  0  0  0  0  0  0  0
    6.0775   -0.4158    4.3313 C   0  0  0  0  0  0  0  0  0  0  0  0
    4.9962   -1.2785    4.2148 O   0  0  0  0  0  0  0  0  0  0  0  0
    3.7272   -0.6415    4.2002 C   0  0  2  0  0  0  0  0  0  0  0  0
    2.6540   -1.6061    4.0276 O   0  0  0  0  0  0  0  0  0  0  0  0
    2.5206   -2.6528    4.9270 C   0  0  0  0  0  0  0  0  0  0  0  0
    1.9834   -3.8493    4.5639 C   0  0  0  0  0  0  0  0  0  0  0  0
    1.9372   -4.9279    5.4836 O   0  0  0  0  0  0  0  0  0  0  0  0
    2.5227   -4.8010    6.7625 C   0  0  0  0  0  0  0  0  0  0  0  0
    2.9447   -3.6038    7.2013 C   0  0  0  0  0  0  0  0  0  0  0  0
    2.9208   -2.3810    6.3522 C   0  0  0  0  0  0  0  0  0  0  0  0
    3.5468   -3.3984    8.5568 C   0  0  3  0  0  0  0  0  0  0  0  0
    2.6353   -2.6243    9.3156 O   0  0  0  0  0  0  0  0  0  0  0  0
    3.0269   -2.3079   10.5772 C   0  0  0  0  0  0  0  0  0  0  0  0
    2.4884   -1.3980   11.2019 O   0  0  0  0  0  0  0  0  0  0  0  0
    4.0482   -3.0383   11.0785 O   0  0  0  0  0  0  0  0  0  0  0  0
    4.3755   -4.3463   10.5972 C   0  0  3  0  0  0  0  0  0  0  0  0
    3.7201   -4.6634    9.2952 C   0  0  0  0  0  0  0  0  0  0  0  0
    3.3040   -5.8563    8.8049 C   0  0  0  0  0  0  0  0  0  0  0  0
    2.6566   -5.9245    7.5637 O   0  3  0  0  0  0  0  0  0  0  0  0
    3.4305   -7.1394    9.5184 C   0  0  0  0  0  0  0  0  0  0  0  0
    4.2316   -8.1798    8.8909 N   0  0  0  0  0  0  0  0  0  0  0  0
    4.6377   -7.6217   10.1431 N   0  0  0  0  0  0  0  0  0  0  0  0
    5.7662   -4.3720   10.3196 O   0  0  0  0  0  0  0  0  0  0  0  0
    1.3565   -4.1060    3.1955 C   0  0  0  0  0  0  0  0  0  0  0  0
    0.7449   -3.0293    2.5372 C   0  0  0  0  0  0  0  0  0  0  0  0
    0.1728   -3.1604    1.3359 N   0  3  0  0  0  0  0  0  0  0  0  0
   -0.3538   -2.0727    0.7393 F   0  0  0  0  0  0  0  0  0  0  0  0
    0.0870   -4.3139    0.7127 N   0  0  0  0  0  0  0  0  0  0  0  0
    0.6001   -5.4063    1.2725 C   0  0  0  0  0  0  0  0  0  0  0  0
    1.2687   -5.3641    2.5225 C   0  0  0  0  0  0  0  0  0  0  0  0
    1.7930   -6.5914    2.9908 C   0  0  0  0  0  0  0  0  0  0  0  0
    1.6054   -7.8019    2.2949 C   0  0  0  0  0  0  0  0  0  0  0  0
    2.0739   -9.0566    2.8892 C   0  0  0  0  0  0  0  0  0  0  0  0
    2.4848   -9.0575    4.0419 O   0  0  0  0  0  0  0  0  0  0  0  0
    1.9586  -10.3087    2.0446 C   0  0  0  0  0  0  0  0  0  0  0  0
    2.1273  -11.4079    2.5494 O   0  0  0  0  0  0  0  0  0  0  0  0
    1.6740  -10.0452    0.5808 C   0  0  1  0  0  0  0  0  0  0  0  0
    0.7523   -8.9621    0.3451 O   0  0  0  0  0  0  0  0  0  0  0  0
    0.9538   -7.8273    1.0790 C   0  0  0  0  0  0  0  0  0  0  0  0
    0.4630   -6.6206    0.5861 C   0  0  0  0  0  0  0  0  0  0  0  0
   -0.1622   -6.6177   -0.6036 F   0  0  0  0  0  0  0  0  0  0  0  0
    2.9511   -9.7993   -0.1684 C   0  0  1  0  0  0  0  0  0  0  0  0
    3.7332   -8.6552    0.2399 O   0  0  0  0  0  0  0  0  0  0  0  0
    3.7086  -10.9569   -0.5067 O   0  0  0  0  0  0  0  0  0  0  0  0
    3.1309  -10.2410   -1.6061 C   0  0  3  0  0  0  0  0  0  0  0  0
    4.0430   -9.4155   -2.3536 O   0  0  0  0  0  0  0  0  0  0  0  0
    3.6529    0.2907    3.0095 C   0  0  0  0  0  0  0  0  0  0  0  0
    2.7999    0.2415    2.1331 O   0  0  0  0  0  0  0  0  0  0  0  0
    4.7793    1.2938    2.9998 C   0  0  0  0  0  0  0  0  0  0  0  0
    4.5787    2.4163    2.5703 O   0  0  0  0  0  0  0  0  0  0  0  0
    6.1102    0.8985    3.6167 C   0  0  0  0  0  0  0  0  0  0  0  0
    7.0948    1.6117    3.5441 O   0  0  0  0  0  0  0  0  0  0  0  0
  1  2  1  0  0  0  0
  2  3  2  0  0  0  0
  3  4  1  0  0  0  0
  3 53  1  0  0  0  0
  4  5  1  0  0  0  0
  5  6  1  6  0  0  0
  5 49  1  0  0  0  0
  6  7  1  0  0  0  0
  7  8  2  0  0  0  0
  7 12  1  0  0  0  0
  8  9  1  0  0  0  0
  8 26  1  0  0  0  0
  9 10  1  0  0  0  0
 10 11  2  0  0  0  0
 10 21  1  0  0  0  0
 11 12  1  0  0  0  0
 11 13  1  0  0  0  0
 13 14  1  0  0  0  0
 13 19  1  0  0  0  0
 14 15  1  0  0  0  0
 15 16  2  0  0  0  0
 15 17  1  0  0  0  0
 17 18  1  0  0  0  0
 18 19  1  0  0  0  0
 18 25  1  0  0  0  0
 19 20  2  0  0  0  0
 20 21  1  0  0  0  0
 20 22  1  0  0  0  0
 22 23  1  0  0  0  0
 22 24  1  0  0  0  0
 23 24  1  0  0  0  0
 26 27  2  0  0  0  0
 26 32  1  0  0  0  0
 27 28  1  0  0  0  0
 28 29  1  0  0  0  0
 28 30  2  0  0  0  0
 30 31  1  0  0  0  0
 31 32  2  0  0  0  0
 31 42  1  0  0  0  0
 32 33  1  0  0  0  0
 33 34  2  0  0  0  0
 34 35  1  0  0  0  0
 34 41  1  0  0  0  0
 35 36  2  0  0  0  0
 35 37  1  0  0  0  0
 37 38  2  0  0  0  0
 39 37  1  1  0  0  0
 39 40  1  0  0  0  0
 39 44  1  0  0  0  0
 40 41  1  0  0  0  0
 41 42  2  0  0  0  0
 42 43  1  0  0  0  0
 44 45  1  1  0  0  0
 44 46  1  0  0  0  0
 44 47  1  0  0  0  0
 46 47  1  0  0  0  0
 47 48  1  0  0  0  0
 49 50  2  0  0  0  0
 49 51  1  0  0  0  0
 51 52  2  0  0  0  0
 51 53  1  0  0  0  0
 53 54  2  0  0  0  0
M  CHG  2  21   1  28   1
M  END
$$$$