
 OpenBabel10282009303D

 51 59  0  0  1  0  0  0  0  0999 V2000
   -2.3199    4.8612   -4.6435 O   0  0  0  0  0  0  0  0  0  0  0  0
   -2.4019    4.1528   -3.4724 C   0  0  0  0  0  0  0  0  0  0  0  0
   -1.3456    3.7941   -2.7341 C   0  0  0  0  0  0  0  0  0  0  0  0
   -0.0636    4.1107   -3.1525 O   0  0  0  0  0  0  0  0  0  0  0  0
    1.0150    3.7680   -2.2627 C   0  0  2  0  0  0  0  0  0  0  0  0
    2.2879    4.0606   -2.8608 O   0  0  0  0  0  0  0  0  0  0  0  0
    2.6029    5.3960   -3.1285 C   0  0  0  0  0  0  0  0  0  0  0  0
    3.7749    5.7476   -3.7153 C   0  0  0  0  0  0  0  0  0  0  0  0
    4.1164    7.0790   -3.9776 O   0  0  0  0  0  0  0  0  0  0  0  0
    3.2810    8.1026   -3.5502 C   0  0  0  0  0  0  0  0  0  0  0  0
    2.0966    7.8619   -2.9674 C   0  0  0  0  0  0  0  0  0  0  0  0
    1.6066    6.4738   -2.7497 C   0  0  0  0  0  0  0  0  0  0  0  0
    1.1972    8.9977   -2.5399 C   0  0  3  0  0  0  0  0  0  0  0  0
    0.8910    8.8330   -1.1529 O   0  0  0  0  0  0  0  0  0  0  0  0
    0.0748    9.7655   -0.6245 C   0  0  0  0  0  0  0  0  0  0  0  0
   -0.5280    9.5442    0.4833 N   0  0  0  0  0  0  0  0  0  0  0  0
   -0.1103   10.9071   -1.3125 O   0  0  0  0  0  0  0  0  0  0  0  0
    0.9539   11.4267   -2.1297 C   0  0  0  0  0  0  0  0  0  0  0  0
    1.8059   10.3505   -2.7054 C   0  0  0  0  0  0  0  0  0  0  0  0
    3.0135   10.5180   -3.2909 C   0  0  0  0  0  0  0  0  0  0  0  0
    3.7015    9.3970   -3.7370 N   0  0  0  0  0  0  0  0  0  0  0  0
    3.6800   11.8261   -3.4871 C   0  0  0  0  0  0  0  0  0  0  0  0
    4.0279   12.3015   -4.7982 O   0  0  0  0  0  0  0  0  0  0  0  0
    2.9992   12.9652   -4.0399 O   0  0  0  0  0  0  0  0  0  0  0  0
    4.8349    4.7886   -4.1255 C   0  0  0  0  0  0  0  0  0  0  0  0
    5.7749    4.5617   -3.1796 N   0  0  0  0  0  0  0  0  0  0  0  0
    6.7387    3.6899   -3.5012 C   0  0  0  0  0  0  0  0  0  0  0  0
    6.8607    3.0358   -4.6638 N   0  0  0  0  0  0  0  0  0  0  0  0
    5.9318    3.2672   -5.5923 C   0  0  0  0  0  0  0  0  0  0  0  0
    4.8717    4.1714   -5.3946 C   0  0  0  0  0  0  0  0  0  0  0  0
    3.9502    4.3761   -6.4503 C   0  0  0  0  0  0  0  0  0  0  0  0
    4.0518    3.6352   -7.6336 C   0  0  0  0  0  0  0  0  0  0  0  0
    5.0670    2.7049   -7.8053 C   0  0  0  0  0  0  0  0  0  0  0  0
    6.0165    2.5613   -6.7928 C   0  0  0  0  0  0  0  0  0  0  0  0
    5.2108    1.8936   -8.8986 O   0  0  0  0  0  0  0  0  0  0  0  0
    4.1199    1.8357   -9.8357 C   0  0  2  0  0  0  0  0  0  0  0  0
    3.4123    3.1531  -10.0116 C   0  0  0  0  0  0  0  0  0  0  0  0
    3.1136    3.6692  -11.0772 O   0  0  0  0  0  0  0  0  0  0  0  0
    3.0675    3.8129   -8.7030 C   0  0  0  0  0  0  0  0  0  0  0  0
    2.0186    4.4143   -8.5444 O   0  0  0  0  0  0  0  0  0  0  0  0
    3.1484    0.7462   -9.4660 C   0  0  1  0  0  0  0  0  0  0  0  0
    2.5253    0.8389   -8.1656 O   0  0  0  0  0  0  0  0  0  0  0  0
    2.2447    0.3428  -10.4994 O   0  0  0  0  0  0  0  0  0  0  0  0
    3.1744   -0.5464  -10.1232 C   0  0  0  0  0  0  0  0  0  0  0  0
    4.0212   -1.1222  -10.7857 O   0  0  0  0  0  0  0  0  0  0  0  0
    0.8590    2.2923   -1.9232 C   0  0  0  0  0  0  0  0  0  0  0  0
    1.5961    1.3730   -2.2358 O   0  0  0  0  0  0  0  0  0  0  0  0
   -0.4384    2.0487   -1.1907 C   0  0  0  0  0  0  0  0  0  0  0  0
   -0.5335    1.1769   -0.3454 O   0  0  0  0  0  0  0  0  0  0  0  0
   -1.6059    2.9530   -1.5335 C   0  0  0  0  0  0  0  0  0  0  0  0
   -2.6282    2.9879   -0.8729 O   0  0  0  0  0  0  0  0  0  0  0  0
  1  2  1  0  0  0  0
  2  3  2  0  0  0  0
  3  4  1  0  0  0  0
  3 50  1  0  0  0  0
  4  5  1  0  0  0  0
  5  6  1  6  0  0  0
  5 46  1  0  0  0  0
  6  7  1  0  0  0  0
  7  8  2  0  0  0  0
  7 12  1  0  0  0  0
  8  9  1  0  0  0  0
  8 25  1  0  0  0  0
  9 10  1  0  0  0  0
 10 11  2  0  0  0  0
 10 21  1  0  0  0  0
 11 12  1  0  0  0  0
 11 13  1  0  0  0  0
 13 14  1  0  0  0  0
 13 19  1  0  0  0  0
 14 15  1  0  0  0  0
 15 16  2  0  0  0  0
 15 17  1  0  0  0  0
 17 18  1  0  0  0  0
 18 19  1  0  0  0  0
 19 20  2  0  0  0  0
 20 21  1  0  0  0  0
 20 22  1  0  0  0  0
 22 23  1  0  0  0  0
 22 24  1  0  0  0  0
 23 24  1  0  0  0  0
 25 26  2  0  0  0  0
 25 30  1  0  0  0  0
 26 27  1  0  0  0  0
 27 28  2  0  0  0  0
 28 29  1  0  0  0  0
 29 30  2  0  0  0  0
 29 34  1  0  0  0  0
 30 31  1  0  0  0  0
 31 32  2  0  0  0  0
 32 33  1  0  0  0  0
 32 39  1  0  0  0  0
 33 34  2  0  0  0  0
 33 35  1  0  0  0  0
 36 35  1  1  0  0  0
 36 37  1  0  0  0  0
 36 41  1  0  0  0  0
 37 38  2  0  0  0  0
 37 39  1  0  0  0  0
 39 40  2  0  0  0  0
 41 42  1  1  0  0  0
 41 43  1  0  0  0  0
 41 44  1  0  0  0  0
 43 44  1  0  0  0  0
 44 45  2  0  0  0  0
 46 47  2  0  0  0  0
 46 48  1  0  0  0  0
 48 49  2  0  0  0  0
 48 50  1  0  0  0  0
 50 51  2  0  0  0  0
M  END
$$$$