
 OpenBabel10232016063D

 92107  0  0  1  0  0  0  0  0999 V2000
  -11.0465   20.6405   -6.6494 C   0  0  0  0  0  0  0  0  0  0  0  0
   -9.5836   20.2510   -6.8820 C   0  0  3  0  0  0  0  0  0  0  0  0
   -8.6405   21.0121   -5.9369 C   0  0  0  0  0  0  0  0  0  0  0  0
   -8.7141   20.5250   -4.4899 C   0  0  0  0  0  0  0  0  0  0  0  0
   -8.4848   19.0226   -4.3979 C   0  0  0  0  0  0  0  0  0  0  0  0
   -9.4396   18.2553   -5.3096 C   0  0  3  0  0  0  0  0  0  0  0  0
   -9.3716   18.7339   -6.7587 C   0  0  0  0  0  0  0  0  0  0  0  0
   -9.0719   16.7707   -5.2743 N   0  3  0  0  0  0  0  0  0  0  0  0
  -10.0313   15.8468   -5.4408 C   0  0  0  0  0  0  0  0  0  0  0  0
   -9.7277   14.5295   -5.3977 N   0  3  0  0  0  0  0  0  0  0  0  0
  -11.0960   13.5107   -5.5973 Cl  0  0  0  0  0  0  0  0  0  0  0  0
   -8.4344   14.0845   -5.1956 C   0  0  0  0  0  0  0  0  0  0  0  0
   -7.4208   15.0611   -5.0080 N   0  3  0  0  0  0  0  0  0  0  0  0
   -7.7870   16.3769   -5.0641 N   0  0  0  0  0  0  0  0  0  0  0  0
   -6.0418   14.7315   -4.7561 C   0  0  0  0  0  0  0  0  0  0  0  0
   -4.9650   15.6154   -4.4770 C   0  0  0  0  0  0  0  0  0  0  0  0
   -3.6720   15.2154   -4.1278 N   0  3  0  0  0  0  0  0  0  0  0  0
   -2.8078   16.4112   -3.2210 Cl  0  0  0  0  0  0  0  0  0  0  0  0
   -3.2397   13.8457   -4.2081 N   0  3  0  0  0  0  0  0  0  0  0  0
   -4.2776   12.9617   -4.5311 C   0  0  0  0  0  0  0  0  0  0  0  0
   -5.6799   13.3960   -4.7422 C   0  0  0  0  0  0  0  0  0  0  0  0
   -6.6628   12.5114   -4.9397 N   0  0  0  0  0  0  0  0  0  0  0  0
   -7.9717   12.7888   -5.1428 N   0  3  0  0  0  0  0  0  0  0  0  0
   -8.9307   11.3844   -5.3439 Cl  0  0  0  0  0  0  0  0  0  0  0  0
   -4.0248   11.5909   -4.7176 N   0  0  0  0  0  0  0  0  0  0  0  0
   -1.6653   13.3560   -4.0404 C   0  0  0  0  0  0  0  0  0  0  0  0
   -0.6902   14.2551   -4.5058 C   0  0  0  0  0  0  0  0  0  0  0  0
   -0.9834   15.5139   -5.0718 N   0  0  0  0  0  0  0  0  0  0  0  0
    0.6405   13.8595   -4.3844 C   0  0  0  0  0  0  0  0  0  0  0  0
    1.0521   12.6788   -3.9080 N   0  0  0  0  0  0  0  0  0  0  0  0
    0.1971   11.7522   -3.4880 N   0  3  0  0  0  0  0  0  0  0  0  0
   -1.1824   12.0022   -3.5163 C   0  0  0  0  0  0  0  0  0  0  0  0
   -1.9182   10.8872   -3.0128 C   0  0  0  0  0  0  0  0  0  0  0  0
   -1.4294    9.6447   -2.5548 C   0  0  0  0  0  0  0  0  0  0  0  0
   -2.4267    8.5353   -2.1954 C   0  0  0  0  0  0  0  0  0  0  0  0
   -2.1171    7.1870   -2.4555 C   0  0  0  0  0  0  0  0  0  0  0  0
   -2.9696    6.1014   -2.1330 C   0  0  0  0  0  0  0  0  0  0  0  0
   -2.3049    4.5347   -2.4000 Cl  0  0  0  0  0  0  0  0  0  0  0  0
   -4.2781    6.3160   -1.6270 C   0  0  0  0  0  0  0  0  0  0  0  0
   -4.6592    7.6449   -1.4292 C   0  0  0  0  0  0  0  0  0  0  0  0
   -3.7372    8.7268   -1.6589 C   0  0  0  0  0  0  0  0  0  0  0  0
   -4.3045   10.3421   -1.2038 Cl  0  0  0  0  0  0  0  0  0  0  0  0
   -5.9852    7.8887   -0.9924 C   0  0  0  0  0  0  0  0  0  0  0  0
   -6.8892    6.8621   -0.6887 C   0  0  0  0  0  0  0  0  0  0  0  0
   -6.5146    5.5574   -0.8548 C   0  0  0  0  0  0  0  0  0  0  0  0
   -5.2175    5.2690   -1.3225 C   0  0  0  0  0  0  0  0  0  0  0  0
   -4.8799    3.9945   -1.4816 F   0  0  0  0  0  0  0  0  0  0  0  0
   -7.3733    4.5188   -0.6629 O   0  0  0  0  0  0  0  0  0  0  0  0
   -8.5060    4.7258    0.2096 C   0  0  3  0  0  0  0  0  0  0  0  0
   -9.2010    6.0801   -0.0274 C   0  0  3  0  0  0  0  0  0  0  0  0
   -8.2363    7.2471   -0.1728 C   0  0  3  0  0  0  0  0  0  0  0  0
   -8.0575    7.9690    1.0446 O   0  0  0  0  0  0  0  0  0  0  0  0
  -10.1427    6.4451    0.9804 O   0  0  0  0  0  0  0  0  0  0  0  0
   -9.4572    3.4783    0.0344 C   0  0  3  0  0  0  0  0  0  0  0  0
   -8.7142    2.2197    0.5457 C   0  0  0  0  0  0  0  0  0  0  0  0
   -9.5694    0.9551    0.4732 C   0  0  0  0  0  0  0  0  0  0  0  0
  -10.2462    0.7660   -0.8568 C   0  0  0  0  0  0  0  0  0  0  0  0
  -10.4772    1.8295   -1.7134 C   0  0  0  0  0  0  0  0  0  0  0  0
   -9.9311    3.2227   -1.4402 C   0  0  3  0  0  0  0  0  0  0  0  0
  -10.9129    4.3021   -1.9726 C   0  0  3  0  0  0  0  0  0  0  0  0
  -11.6165    4.8640   -0.9531 F   0  0  0  0  0  0  0  0  0  0  0  0
  -11.8875    3.9106   -3.0722 C   0  0  0  0  0  0  0  0  0  0  0  0
  -11.2850    2.7671   -3.8691 C   0  0  3  0  0  0  0  0  0  0  0  0
  -11.2118    1.6049   -2.9011 C   0  0  0  0  0  0  0  0  0  0  0  0
  -11.8972    0.3837   -3.1377 C   0  0  0  0  0  0  0  0  0  0  0  0
  -11.5436   -0.7575   -2.3581 C   0  0  0  0  0  0  0  0  0  0  0  0
  -10.7200   -0.5074   -1.2238 C   0  0  0  0  0  0  0  0  0  0  0  0
  -11.9872   -2.1772   -2.6243 C   0  0  0  0  0  0  0  0  0  0  0  0
  -12.1269   -3.1160   -1.5759 C   0  0  0  0  0  0  0  0  0  0  0  0
  -12.4642   -4.4739   -1.7936 C   0  0  0  0  0  0  0  0  0  0  0  0
  -12.1439   -5.5072   -0.7137 C   0  0  3  0  0  0  0  0  0  0  0  0
  -10.6002   -5.6556   -0.6976 C   0  0  0  0  0  0  0  0  0  0  0  0
  -10.0998   -6.7393    0.2427 C   0  0  0  0  0  0  0  0  0  0  0  0
  -10.7566   -8.0756   -0.0595 C   0  0  0  0  0  0  0  0  0  0  0  0
  -12.2823   -7.9633    0.0338 C   0  0  3  0  0  0  0  0  0  0  0  0
  -12.8577   -6.8743   -0.9134 C   0  0  3  0  0  0  0  0  0  0  0  0
  -12.8425   -7.2940   -2.3958 C   0  0  0  0  0  0  0  0  0  0  0  0
  -13.4833   -6.2394   -3.3044 C   0  0  3  0  0  0  0  0  0  0  0  0
  -12.8765   -4.8781   -3.0658 C   0  0  0  0  0  0  0  0  0  0  0  0
  -12.7070   -3.9906   -4.1268 C   0  0  0  0  0  0  0  0  0  0  0  0
  -12.1880   -2.7096   -3.9088 C   0  0  0  0  0  0  0  0  0  0  0  0
  -11.8135   -2.0262   -5.0008 F   0  0  0  0  0  0  0  0  0  0  0  0
  -15.0071   -6.1611   -3.1240 C   0  0  0  0  0  0  0  0  0  0  0  0
  -12.9187   -9.3396   -0.1756 C   0  0  0  0  0  0  0  0  0  0  0  0
  -13.0496    0.4047   -4.1508 C   0  0  3  0  0  0  0  0  0  0  0  0
  -13.3332    1.7650   -4.8227 C   0  0  0  0  0  0  0  0  0  0  0  0
  -12.0339    2.4623   -5.1557 C   0  0  0  0  0  0  0  0  0  0  0  0
  -14.5800   -0.0822   -3.3550 Cl  0  0  0  0  0  0  0  0  0  0  0  0
   -0.0181    9.5379   -2.5081 C   0  0  0  0  0  0  0  0  0  0  0  0
    0.7447   10.5576   -3.0143 N   0  3  0  0  0  0  0  0  0  0  0  0
    2.4611   10.3668   -3.1338 Cl  0  0  0  0  0  0  0  0  0  0  0  0
    0.6799    8.3316   -1.9164 C   0  0  0  0  0  0  0  0  0  0  0  0
  1  2  1  0  0  0  0
  2  3  1  0  0  0  0
  2  7  1  0  0  0  0
  3  4  1  0  0  0  0
  4  5  1  0  0  0  0
  5  6  1  0  0  0  0
  6  7  1  0  0  0  0
  6  8  1  0  0  0  0
  8  9  2  0  0  0  0
  8 14  1  0  0  0  0
  9 10  1  0  0  0  0
 10 11  1  0  0  0  0
 10 12  2  0  0  0  0
 12 13  1  0  0  0  0
 12 23  1  0  0  0  0
 13 14  2  0  0  0  0
 13 15  1  0  0  0  0
 15 16  2  0  0  0  0
 15 21  1  0  0  0  0
 16 17  1  0  0  0  0
 17 18  1  0  0  0  0
 17 19  2  0  0  0  0
 19 20  1  0  0  0  0
 19 26  1  0  0  0  0
 20 21  2  0  0  0  0
 20 25  1  0  0  0  0
 21 22  1  0  0  0  0
 22 23  2  0  0  0  0
 23 24  1  0  0  0  0
 26 27  2  0  0  0  0
 26 32  1  0  0  0  0
 27 28  1  0  0  0  0
 27 29  1  0  0  0  0
 29 30  2  0  0  0  0
 30 31  1  0  0  0  0
 31 32  2  0  0  0  0
 31 90  1  0  0  0  0
 32 33  1  0  0  0  0
 33 34  2  0  0  0  0
 34 35  1  0  0  0  0
 34 89  1  0  0  0  0
 35 36  2  0  0  0  0
 35 41  1  0  0  0  0
 36 37  1  0  0  0  0
 37 38  1  0  0  0  0
 37 39  2  0  0  0  0
 39 40  1  0  0  0  0
 39 46  1  0  0  0  0
 40 41  2  0  0  0  0
 40 43  1  0  0  0  0
 41 42  1  0  0  0  0
 43 44  2  0  0  0  0
 44 45  1  0  0  0  0
 44 51  1  0  0  0  0
 45 46  2  0  0  0  0
 45 48  1  0  0  0  0
 46 47  1  0  0  0  0
 48 49  1  0  0  0  0
 49 50  1  0  0  0  0
 49 54  1  0  0  0  0
 50 51  1  0  0  0  0
 50 53  1  0  0  0  0
 51 52  1  0  0  0  0
 54 55  1  0  0  0  0
 54 59  1  0  0  0  0
 55 56  1  0  0  0  0
 56 57  1  0  0  0  0
 57 58  2  0  0  0  0
 57 67  1  0  0  0  0
 58 59  1  0  0  0  0
 58 64  1  0  0  0  0
 59 60  1  0  0  0  0
 60 61  1  0  0  0  0
 60 62  1  0  0  0  0
 62 63  1  0  0  0  0
 63 64  1  0  0  0  0
 63 87  1  0  0  0  0
 64 65  2  0  0  0  0
 65 66  1  0  0  0  0
 65 85  1  0  0  0  0
 66 67  2  0  0  0  0
 66 68  1  0  0  0  0
 68 69  2  0  0  0  0
 68 81  1  0  0  0  0
 69 70  1  0  0  0  0
 70 71  1  0  0  0  0
 70 79  2  0  0  0  0
 71 72  1  0  0  0  0
 71 76  1  0  0  0  0
 72 73  1  0  0  0  0
 73 74  1  0  0  0  0
 74 75  1  0  0  0  0
 75 76  1  0  0  0  0
 75 84  1  0  0  0  0
 76 77  1  0  0  0  0
 77 78  1  0  0  0  0
 78 79  1  0  0  0  0
 78 83  1  0  0  0  0
 79 80  1  0  0  0  0
 80 81  2  0  0  0  0
 81 82  1  0  0  0  0
 85 86  1  0  0  0  0
 85 88  1  0  0  0  0
 86 87  1  0  0  0  0
 89 90  2  0  0  0  0
 89 92  1  0  0  0  0
 90 91  1  0  0  0  0
M  CHG  8   8   1  10   1  13   1  17   1  19   1  23   1  31   1  90   1
M  END
$$$$