
 OpenBabel11252015063D

 54 64  0  0  1  0  0  0  0  0999 V2000
    4.0579    9.4001   -3.6128 O   0  0  0  0  0  0  0  0  0  0  0  0
    5.4162    9.4245   -3.8041 C   0  0  0  0  0  0  0  0  0  0  0  0
    6.0434    8.6098   -4.6605 C   0  0  0  0  0  0  0  0  0  0  0  0
    5.3048    7.6691   -5.4062 O   0  0  0  0  0  0  0  0  0  0  0  0
    6.0013    6.7629   -6.2953 C   0  0  2  0  0  0  0  0  0  0  0  0
    5.2922    5.5073   -6.4253 O   0  0  0  0  0  0  0  0  0  0  0  0
    4.2852    5.4317   -7.3790 C   0  0  0  0  0  0  0  0  0  0  0  0
    3.9816    4.2604   -7.9923 C   0  0  0  0  0  0  0  0  0  0  0  0
    2.9457    4.1885   -8.9384 O   0  0  0  0  0  0  0  0  0  0  0  0
    2.2867    5.3360   -9.3755 C   0  0  0  0  0  0  0  0  0  0  0  0
    2.5628    6.5373   -8.8413 C   0  0  0  0  0  0  0  0  0  0  0  0
    3.4880    6.6876   -7.6693 C   0  0  0  0  0  0  0  0  0  0  0  0
    2.0144    7.8131   -9.4255 C   0  0  3  0  0  0  0  0  0  0  0  0
    3.1390    8.5098   -9.9454 O   0  0  0  0  0  0  0  0  0  0  0  0
    2.9781    9.5687  -10.7802 C   0  0  0  0  0  0  0  0  0  0  0  0
    3.9275   10.2710  -11.0868 O   0  0  0  0  0  0  0  0  0  0  0  0
    1.7397    9.7575  -11.2924 O   0  0  0  0  0  0  0  0  0  0  0  0
    0.6591    8.8486  -11.1393 C   0  0  3  0  0  0  0  0  0  0  0  0
    1.1009    7.5527  -10.5624 C   0  0  0  0  0  0  0  0  0  0  0  0
    0.7849    6.3094  -10.9870 C   0  0  0  0  0  0  0  0  0  0  0  0
    1.3655    5.1981  -10.3917 O   0  3  0  0  0  0  0  0  0  0  0  0
   -0.1308    6.0286  -12.1167 C   0  0  0  0  0  0  0  0  0  0  0  0
    0.3710    5.8889  -13.4511 O   0  0  0  0  0  0  0  0  0  0  0  0
   -0.1288    4.7357  -12.7474 O   0  0  0  0  0  0  0  0  0  0  0  0
   -0.2810    9.3789  -10.2308 O   0  0  0  0  0  0  0  0  0  0  0  0
    4.7065    2.9515   -7.7686 C   0  0  0  0  0  0  0  0  0  0  0  0
    6.0682    2.9687   -7.4509 C   0  0  0  0  0  0  0  0  0  0  0  0
    6.7699    1.8420   -7.2954 N   0  3  0  0  0  0  0  0  0  0  0  0
    8.0716    1.9232   -6.9561 F   0  0  0  0  0  0  0  0  0  0  0  0
    6.2504    0.6505   -7.4969 N   0  0  0  0  0  0  0  0  0  0  0  0
    4.9677    0.5368   -7.8399 C   0  0  0  0  0  0  0  0  0  0  0  0
    4.1225    1.6630   -7.9548 C   0  0  0  0  0  0  0  0  0  0  0  0
    2.7639    1.4112   -8.2732 C   0  0  0  0  0  0  0  0  0  0  0  0
    2.2990    0.1256   -8.5869 C   0  0  0  0  0  0  0  0  0  0  0  0
    3.1424   -0.9578   -8.5095 C   0  0  0  0  0  0  0  0  0  0  0  0
    4.4598   -0.7397   -8.1198 C   0  0  0  0  0  0  0  0  0  0  0  0
    5.2937   -1.7874   -8.0448 F   0  0  0  0  0  0  0  0  0  0  0  0
    2.7579   -2.2128   -8.8863 O   0  0  0  0  0  0  0  0  0  0  0  0
    1.3404   -2.5051   -8.7448 C   0  0  1  0  0  0  0  0  0  0  0  0
    0.3777   -1.4607   -9.1564 C   0  0  0  0  0  0  0  0  0  0  0  0
   -0.8006   -1.6584   -9.3965 O   0  0  0  0  0  0  0  0  0  0  0  0
    0.9423   -0.0570   -9.1080 C   0  0  0  0  0  0  0  0  0  0  0  0
    0.3285    0.9256   -9.5002 O   0  0  0  0  0  0  0  0  0  0  0  0
    0.9745   -3.8249   -9.0604 O   0  0  0  0  0  0  0  0  0  0  0  0
    0.8957   -3.4403   -7.6545 C   0  0  1  0  0  0  0  0  0  0  0  0
    2.0753   -3.6535   -6.7961 O   0  0  0  0  0  0  0  0  0  0  0  0
    1.1983   -4.6308   -6.8972 C   0  0  0  0  0  0  0  0  0  0  0  0
    0.5894   -5.2418   -6.0464 O   0  0  0  0  0  0  0  0  0  0  0  0
    7.3521    6.4731   -5.7114 C   0  0  3  0  0  0  0  0  0  0  0  0
    8.0696    7.8168   -5.8661 C   0  0  3  0  0  0  0  0  0  0  0  0
    7.5617    8.7245   -4.7600 C   0  0  0  0  0  0  0  0  0  0  0  0
    8.2161    9.4769   -4.0485 O   0  0  0  0  0  0  0  0  0  0  0  0
    9.2818    7.0154   -5.9022 O   0  0  0  0  0  0  0  0  0  0  0  0
    8.4351    5.9114   -6.4831 O   0  0  0  0  0  0  0  0  0  0  0  0
  1  2  1  0  0  0  0
  2  3  2  0  0  0  0
  3  4  1  0  0  0  0
  3 51  1  0  0  0  0
  4  5  1  0  0  0  0
  5  6  1  1  0  0  0
  5 49  1  0  0  0  0
  6  7  1  0  0  0  0
  7  8  2  0  0  0  0
  7 12  1  0  0  0  0
  8  9  1  0  0  0  0
  8 26  1  0  0  0  0
  9 10  1  0  0  0  0
 10 11  2  0  0  0  0
 10 21  1  0  0  0  0
 11 12  1  0  0  0  0
 11 13  1  0  0  0  0
 13 14  1  0  0  0  0
 13 19  1  0  0  0  0
 14 15  1  0  0  0  0
 15 16  2  0  0  0  0
 15 17  1  0  0  0  0
 17 18  1  0  0  0  0
 18 19  1  0  0  0  0
 18 25  1  0  0  0  0
 19 20  2  0  0  0  0
 20 21  1  0  0  0  0
 20 22  1  0  0  0  0
 22 23  1  0  0  0  0
 22 24  1  0  0  0  0
 23 24  1  0  0  0  0
 26 27  2  0  0  0  0
 26 32  1  0  0  0  0
 27 28  1  0  0  0  0
 28 29  1  0  0  0  0
 28 30  2  0  0  0  0
 30 31  1  0  0  0  0
 31 32  2  0  0  0  0
 31 36  1  0  0  0  0
 32 33  1  0  0  0  0
 33 34  2  0  0  0  0
 34 35  1  0  0  0  0
 34 42  1  0  0  0  0
 35 36  2  0  0  0  0
 35 38  1  0  0  0  0
 36 37  1  0  0  0  0
 39 38  1  6  0  0  0
 39 40  1  0  0  0  0
 39 44  1  0  0  0  0
 39 45  1  0  0  0  0
 40 41  2  0  0  0  0
 40 42  1  0  0  0  0
 42 43  2  0  0  0  0
 45 44  1  6  0  0  0
 45 46  1  0  0  0  0
 45 47  1  0  0  0  0
 46 47  1  0  0  0  0
 47 48  2  0  0  0  0
 49 50  1  0  0  0  0
 49 54  1  0  0  0  0
 50 51  1  0  0  0  0
 50 53  1  0  0  0  0
 51 52  2  0  0  0  0
 53 54  1  0  0  0  0
M  CHG  2  21   1  28   1
M  END
$$$$