
 OpenBabel11242000273D

 54 62  0  0  1  0  0  0  0  0999 V2000
   -2.2989    4.1314   -2.0693 O   0  0  0  0  0  0  0  0  0  0  0  0
   -1.9434    3.0183   -1.3443 C   0  0  0  0  0  0  0  0  0  0  0  0
   -0.7206    2.4804   -1.4104 C   0  0  0  0  0  0  0  0  0  0  0  0
    0.2193    3.0290   -2.2679 O   0  0  0  0  0  0  0  0  0  0  0  0
    1.5561    2.8747   -1.8459 C   0  0  2  0  0  0  0  0  0  0  0  0
    2.4614    3.4357   -2.8311 O   0  0  0  0  0  0  0  0  0  0  0  0
    2.4999    4.7925   -3.0874 C   0  0  0  0  0  0  0  0  0  0  0  0
    3.3710    5.2983   -3.9985 C   0  0  0  0  0  0  0  0  0  0  0  0
    3.4100    6.6827   -4.2611 O   0  3  0  0  0  0  0  0  0  0  0  0
    2.6200    7.6034   -3.5346 C   0  0  0  0  0  0  0  0  0  0  0  0
    1.7779    7.1399   -2.5834 C   0  0  0  0  0  0  0  0  0  0  0  0
    1.5635    5.6797   -2.3104 C   0  0  0  0  0  0  0  0  0  0  0  0
    0.9786    8.0368   -1.6687 C   0  0  3  0  0  0  0  0  0  0  0  0
    1.4935    7.8217   -0.3689 O   0  0  0  0  0  0  0  0  0  0  0  0
    0.9204    8.5323    0.6430 C   0  0  0  0  0  0  0  0  0  0  0  0
    1.0750    8.2033    1.8049 O   0  0  0  0  0  0  0  0  0  0  0  0
    0.1891    9.6032    0.2550 O   0  0  0  0  0  0  0  0  0  0  0  0
    0.4283   10.2842   -0.9724 C   0  0  3  0  0  0  0  0  0  0  0  0
    1.2161    9.4633   -1.9418 C   0  0  0  0  0  0  0  0  0  0  0  0
    2.0264    9.8978   -2.9269 C   0  0  0  0  0  0  0  0  0  0  0  0
    2.7026    8.9914   -3.7525 O   0  3  0  0  0  0  0  0  0  0  0  0
    2.2474   11.3265   -3.2601 C   0  0  0  0  0  0  0  0  0  0  0  0
    3.1537   11.6665   -4.3300 O   0  0  0  0  0  0  0  0  0  0  0  0
    1.7359   11.8770   -4.4799 O   0  0  0  0  0  0  0  0  0  0  0  0
   -0.8035   10.4979   -1.6244 O   0  0  0  0  0  0  0  0  0  0  0  0
    4.3542    4.3830   -4.7582 C   0  0  0  0  0  0  0  0  0  0  0  0
    4.8922    3.2447   -4.1165 C   0  0  0  0  0  0  0  0  0  0  0  0
    5.7533    2.4197   -4.7288 N   0  3  0  0  0  0  0  0  0  0  0  0
    6.1741    1.3105   -4.0867 F   0  0  0  0  0  0  0  0  0  0  0  0
    6.2296    2.6665   -5.9269 N   0  0  0  0  0  0  0  0  0  0  0  0
    5.7725    3.7006   -6.6252 C   0  0  0  0  0  0  0  0  0  0  0  0
    4.7870    4.5814   -6.1022 C   0  0  0  0  0  0  0  0  0  0  0  0
    4.2882    5.5656   -6.9845 C   0  0  0  0  0  0  0  0  0  0  0  0
    4.7949    5.7132   -8.2877 C   0  0  0  0  0  0  0  0  0  0  0  0
    4.2528    6.7563   -9.1496 C   0  0  0  0  0  0  0  0  0  0  0  0
    3.6023    7.6480   -8.6220 O   0  0  0  0  0  0  0  0  0  0  0  0
    4.5780    6.6637  -10.6265 C   0  0  0  0  0  0  0  0  0  0  0  0
    4.3288    7.6082  -11.3562 O   0  0  0  0  0  0  0  0  0  0  0  0
    5.1913    5.3393  -11.0471 C   0  0  1  0  0  0  0  0  0  0  0  0
    6.1636    4.8666  -10.0815 O   0  0  0  0  0  0  0  0  0  0  0  0
    5.7605    4.8631   -8.7783 C   0  0  0  0  0  0  0  0  0  0  0  0
    6.2599    3.8844   -7.9236 C   0  0  0  0  0  0  0  0  0  0  0  0
    7.1971    3.0428   -8.3831 F   0  0  0  0  0  0  0  0  0  0  0  0
    4.1386    4.3097  -11.4035 C   0  0  1  0  0  0  0  0  0  0  0  0
    3.2700    4.6546  -12.4956 O   0  0  0  0  0  0  0  0  0  0  0  0
    4.5608    2.9375  -11.3530 O   0  0  0  0  0  0  0  0  0  0  0  0
    3.6016    3.3069  -10.4950 C   0  0  0  0  0  0  0  0  0  0  0  0
    3.5226    3.2719   -9.2774 O   0  0  0  0  0  0  0  0  0  0  0  0
    1.9093    1.4101   -1.7365 C   0  0  0  0  0  0  0  0  0  0  0  0
    2.8754    0.8965   -2.2861 O   0  0  0  0  0  0  0  0  0  0  0  0
    0.9608    0.6770   -0.8190 C   0  0  0  0  0  0  0  0  0  0  0  0
    1.3531   -0.3136   -0.2306 O   0  0  0  0  0  0  0  0  0  0  0  0
   -0.4191    1.2753   -0.5750 C   0  0  0  0  0  0  0  0  0  0  0  0
   -1.1713    0.8387    0.2758 O   0  0  0  0  0  0  0  0  0  0  0  0
  1  2  1  0  0  0  0
  2  3  2  0  0  0  0
  3  4  1  0  0  0  0
  3 53  1  0  0  0  0
  4  5  1  0  0  0  0
  5  6  1  6  0  0  0
  5 49  1  0  0  0  0
  6  7  1  0  0  0  0
  7  8  2  0  0  0  0
  7 12  1  0  0  0  0
  8  9  1  0  0  0  0
  8 26  1  0  0  0  0
  9 10  1  0  0  0  0
 10 11  2  0  0  0  0
 10 21  1  0  0  0  0
 11 12  1  0  0  0  0
 11 13  1  0  0  0  0
 13 14  1  0  0  0  0
 13 19  1  0  0  0  0
 14 15  1  0  0  0  0
 15 16  2  0  0  0  0
 15 17  1  0  0  0  0
 17 18  1  0  0  0  0
 18 19  1  0  0  0  0
 18 25  1  0  0  0  0
 19 20  2  0  0  0  0
 20 21  1  0  0  0  0
 20 22  1  0  0  0  0
 22 23  1  0  0  0  0
 22 24  1  0  0  0  0
 23 24  1  0  0  0  0
 26 27  2  0  0  0  0
 26 32  1  0  0  0  0
 27 28  1  0  0  0  0
 28 29  1  0  0  0  0
 28 30  2  0  0  0  0
 30 31  1  0  0  0  0
 31 32  2  0  0  0  0
 31 42  1  0  0  0  0
 32 33  1  0  0  0  0
 33 34  2  0  0  0  0
 34 35  1  0  0  0  0
 34 41  1  0  0  0  0
 35 36  2  0  0  0  0
 35 37  1  0  0  0  0
 37 38  2  0  0  0  0
 39 37  1  1  0  0  0
 39 40  1  0  0  0  0
 39 44  1  0  0  0  0
 40 41  1  0  0  0  0
 41 42  2  0  0  0  0
 42 43  1  0  0  0  0
 44 45  1  6  0  0  0
 44 46  1  0  0  0  0
 44 47  1  0  0  0  0
 46 47  1  0  0  0  0
 47 48  2  0  0  0  0
 49 50  2  0  0  0  0
 49 51  1  0  0  0  0
 51 52  2  0  0  0  0
 51 53  1  0  0  0  0
 53 54  2  0  0  0  0
M  CHG  3   9   1  21   1  28   1
M  END
$$$$