
 OpenBabel11232001363D

 52 60  0  0  1  0  0  0  0  0999 V2000
    4.2271   -5.3320    6.9777 O   0  0  0  0  0  0  0  0  0  0  0  0
    3.5961   -4.1485    7.2641 C   0  0  0  0  0  0  0  0  0  0  0  0
    3.1734   -3.3123    6.3099 C   0  0  0  0  0  0  0  0  0  0  0  0
    3.3931   -3.5913    4.9706 O   0  0  0  0  0  0  0  0  0  0  0  0
    2.2486   -3.3131    4.1693 C   0  0  2  0  0  0  0  0  0  0  0  0
    2.4433   -3.7554    2.8109 O   0  0  0  0  0  0  0  0  0  0  0  0
    2.7038   -5.1088    2.6427 C   0  0  0  0  0  0  0  0  0  0  0  0
    3.4788   -5.5394    1.6258 C   0  0  0  0  0  0  0  0  0  0  0  0
    3.7357   -6.8821    1.3719 O   0  0  0  0  0  0  0  0  0  0  0  0
    3.0499   -7.8477    2.1003 C   0  0  0  0  0  0  0  0  0  0  0  0
    2.2096   -7.5107    3.0917 C   0  0  0  0  0  0  0  0  0  0  0  0
    2.0069   -6.1046    3.5432 C   0  0  0  0  0  0  0  0  0  0  0  0
    1.4215   -8.5947    3.7410 C   0  0  0  0  0  0  0  0  0  0  0  0
    0.5260   -8.3107    4.6275 N   0  0  0  0  0  0  0  0  0  0  0  0
   -0.2187   -9.3358    5.1814 C   0  0  0  0  0  0  0  0  0  0  0  0
   -1.1249   -9.0347    5.9464 O   0  0  0  0  0  0  0  0  0  0  0  0
    0.0037  -10.6709    4.9077 N   0  0  0  0  0  0  0  0  0  0  0  0
    0.8898  -10.9829    4.0265 C   0  0  0  0  0  0  0  0  0  0  0  0
    1.6899   -9.9848    3.3177 C   0  0  0  0  0  0  0  0  0  0  0  0
    2.6038  -10.2279    2.3560 C   0  0  0  0  0  0  0  0  0  0  0  0
    3.2507   -9.1575    1.7493 N   0  0  0  0  0  0  0  0  0  0  0  0
    2.9736  -11.5765    1.8655 C   0  0  0  0  0  0  0  0  0  0  0  0
    2.2685  -12.1991    0.7822 O   0  0  0  0  0  0  0  0  0  0  0  0
    3.6302  -11.7656    0.5987 O   0  0  0  0  0  0  0  0  0  0  0  0
    4.0388   -4.6278    0.6167 C   0  0  0  0  0  0  0  0  0  0  0  0
    3.2572   -4.3693   -0.5030 C   0  0  0  0  0  0  0  0  0  0  0  0
    3.6950   -3.5547   -1.4662 N   0  3  0  0  0  0  0  0  0  0  0  0
    2.9152   -3.3357   -2.5417 F   0  0  0  0  0  0  0  0  0  0  0  0
    4.8723   -2.9570   -1.4132 N   0  0  0  0  0  0  0  0  0  0  0  0
    5.6615   -3.1579   -0.3553 C   0  0  0  0  0  0  0  0  0  0  0  0
    5.2927   -4.0011    0.7112 C   0  0  0  0  0  0  0  0  0  0  0  0
    6.1889   -4.1704    1.7927 C   0  0  0  0  0  0  0  0  0  0  0  0
    7.4184   -3.5013    1.8096 C   0  0  0  0  0  0  0  0  0  0  0  0
    7.7618   -2.6489    0.7710 C   0  0  0  0  0  0  0  0  0  0  0  0
    6.8890   -2.5046   -0.3093 C   0  0  0  0  0  0  0  0  0  0  0  0
    8.9153   -1.9184    0.7117 O   0  0  0  0  0  0  0  0  0  0  0  0
    9.6207   -1.7311    1.9506 C   0  0  2  0  0  0  0  0  0  0  0  0
    9.6792   -2.9694    2.8119 C   0  0  0  0  0  0  0  0  0  0  0  0
   10.6768   -3.3691    3.3923 O   0  0  0  0  0  0  0  0  0  0  0  0
    8.3648   -3.7085    2.9127 C   0  0  0  0  0  0  0  0  0  0  0  0
    8.1120   -4.4575    3.8408 O   0  0  0  0  0  0  0  0  0  0  0  0
    9.0547   -0.5728    2.7078 C   0  0  1  0  0  0  0  0  0  0  0  0
    7.6576   -0.6623    3.0926 O   0  0  0  0  0  0  0  0  0  0  0  0
    9.9277   -0.0035    3.6790 O   0  0  0  0  0  0  0  0  0  0  0  0
    9.5978    0.7842    2.6381 C   0  0  0  0  0  0  0  0  0  0  0  0
    8.9998    1.8400    2.6187 O   0  0  0  0  0  0  0  0  0  0  0  0
    2.0083   -1.8137    4.1470 C   0  0  0  0  0  0  0  0  0  0  0  0
    1.7608   -1.1519    3.1481 O   0  0  0  0  0  0  0  0  0  0  0  0
    2.0851   -1.1894    5.5239 C   0  0  0  0  0  0  0  0  0  0  0  0
    1.8610    0.0004    5.6727 O   0  0  0  0  0  0  0  0  0  0  0  0
    2.4617   -2.0642    6.7062 C   0  0  0  0  0  0  0  0  0  0  0  0
    2.1552   -1.7769    7.8490 O   0  0  0  0  0  0  0  0  0  0  0  0
  1  2  1  0  0  0  0
  2  3  2  0  0  0  0
  3  4  1  0  0  0  0
  3 51  1  0  0  0  0
  4  5  1  0  0  0  0
  5  6  1  6  0  0  0
  5 47  1  0  0  0  0
  6  7  1  0  0  0  0
  7  8  2  0  0  0  0
  7 12  1  0  0  0  0
  8  9  1  0  0  0  0
  8 25  1  0  0  0  0
  9 10  1  0  0  0  0
 10 11  2  0  0  0  0
 10 21  1  0  0  0  0
 11 12  1  0  0  0  0
 11 13  1  0  0  0  0
 13 14  2  0  0  0  0
 13 19  1  0  0  0  0
 14 15  1  0  0  0  0
 15 16  2  0  0  0  0
 15 17  1  0  0  0  0
 17 18  2  0  0  0  0
 18 19  1  0  0  0  0
 19 20  2  0  0  0  0
 20 21  1  0  0  0  0
 20 22  1  0  0  0  0
 22 23  1  0  0  0  0
 22 24  1  0  0  0  0
 23 24  1  0  0  0  0
 25 26  2  0  0  0  0
 25 31  1  0  0  0  0
 26 27  1  0  0  0  0
 27 28  1  0  0  0  0
 27 29  2  0  0  0  0
 29 30  1  0  0  0  0
 30 31  2  0  0  0  0
 30 35  1  0  0  0  0
 31 32  1  0  0  0  0
 32 33  2  0  0  0  0
 33 34  1  0  0  0  0
 33 40  1  0  0  0  0
 34 35  2  0  0  0  0
 34 36  1  0  0  0  0
 37 36  1  6  0  0  0
 37 38  1  0  0  0  0
 37 42  1  0  0  0  0
 38 39  2  0  0  0  0
 38 40  1  0  0  0  0
 40 41  2  0  0  0  0
 42 43  1  1  0  0  0
 42 44  1  0  0  0  0
 42 45  1  0  0  0  0
 44 45  1  0  0  0  0
 45 46  2  0  0  0  0
 47 48  2  0  0  0  0
 47 49  1  0  0  0  0
 49 50  2  0  0  0  0
 49 51  1  0  0  0  0
 51 52  2  0  0  0  0
M  CHG  1  27   1
M  END
$$$$