
 OpenBabel11242001043D

 53 63  0  0  1  0  0  0  0  0999 V2000
   16.7426    1.0446    0.3772 O   0  0  0  0  0  0  0  0  0  0  0  0
   17.2127   -0.1909    0.0129 C   0  0  0  0  0  0  0  0  0  0  0  0
   16.8065   -0.8157   -1.0985 C   0  0  0  0  0  0  0  0  0  0  0  0
   15.8773   -0.2199   -1.9401 O   0  0  0  0  0  0  0  0  0  0  0  0
   15.8770   -0.7162   -3.2744 C   0  0  2  0  0  0  0  0  0  0  0  0
   14.8548   -0.0648   -4.0440 O   0  0  0  0  0  0  0  0  0  0  0  0
   15.1893    1.1002   -4.7173 C   0  0  0  0  0  0  0  0  0  0  0  0
   14.2575    2.0501   -4.9352 C   0  0  0  0  0  0  0  0  0  0  0  0
   14.4703    3.1691   -5.7245 O   0  0  0  0  0  0  0  0  0  0  0  0
   15.6637    3.2863   -6.4176 C   0  0  0  0  0  0  0  0  0  0  0  0
   16.6688    2.4042   -6.2588 C   0  0  0  0  0  0  0  0  0  0  0  0
   16.5630    1.2340   -5.3391 C   0  0  0  0  0  0  0  0  0  0  0  0
   17.9243    2.5912   -7.0613 C   0  0  3  0  0  0  0  0  0  0  0  0
   18.0709    3.9694   -7.6398 C   0  0  0  0  0  0  0  0  0  0  0  0
   17.0235    4.8108   -7.7393 C   0  0  0  0  0  0  0  0  0  0  0  0
   15.7829    4.3621   -7.2763 N   0  0  0  0  0  0  0  0  0  0  0  0
   17.1051    6.2242   -8.1739 C   0  0  0  0  0  0  0  0  0  0  0  0
   15.9400    7.0695   -8.2228 O   0  0  0  0  0  0  0  0  0  0  0  0
   16.9664    7.3067   -7.2407 O   0  0  0  0  0  0  0  0  0  0  0  0
   19.5348    4.2692   -7.6601 C   0  0  0  0  0  0  0  0  0  0  0  0
   20.0845    3.2989   -6.6989 N   0  0  0  0  0  0  0  0  0  0  0  0
   19.1694    2.3943   -6.3150 N   0  0  0  0  0  0  0  0  0  0  0  0
   19.6425    3.3091   -5.3945 C   0  0  0  0  0  0  0  0  0  0  0  0
   18.9753    4.2109   -4.7691 N   0  0  0  0  0  0  0  0  0  0  0  0
   12.8860    1.9680   -4.4203 C   0  0  0  0  0  0  0  0  0  0  0  0
   11.9540    1.2762   -5.1829 C   0  0  0  0  0  0  0  0  0  0  0  0
   10.6794    1.2092   -4.7922 N   0  3  0  0  0  0  0  0  0  0  0  0
    9.7943    0.5440   -5.5585 F   0  0  0  0  0  0  0  0  0  0  0  0
   10.2436    1.7853   -3.6852 N   0  0  0  0  0  0  0  0  0  0  0  0
   11.1001    2.4576   -2.9049 C   0  0  0  0  0  0  0  0  0  0  0  0
   12.4620    2.5820   -3.2268 C   0  0  0  0  0  0  0  0  0  0  0  0
   13.3127    3.3015   -2.3480 C   0  0  0  0  0  0  0  0  0  0  0  0
   12.8141    3.8737   -1.1692 C   0  0  0  0  0  0  0  0  0  0  0  0
   11.4705    3.7645   -0.8594 C   0  0  0  0  0  0  0  0  0  0  0  0
   10.6383    3.0588   -1.7323 C   0  0  0  0  0  0  0  0  0  0  0  0
    9.3348    2.9468   -1.4282 F   0  0  0  0  0  0  0  0  0  0  0  0
   10.8957    4.2848    0.2682 O   0  0  0  0  0  0  0  0  0  0  0  0
   11.7170    5.1336    1.1059 C   0  0  1  0  0  0  0  0  0  0  0  0
   13.1609    4.8648    1.1336 C   0  0  0  0  0  0  0  0  0  0  0  0
   13.8364    4.8310    2.1469 O   0  0  0  0  0  0  0  0  0  0  0  0
   13.7142    4.5603   -0.2349 C   0  0  0  0  0  0  0  0  0  0  0  0
   14.8593    4.8441   -0.5407 O   0  0  0  0  0  0  0  0  0  0  0  0
   11.3445    6.4846    1.1998 O   0  0  0  0  0  0  0  0  0  0  0  0
   11.1223    5.6477    2.3826 C   0  0  1  0  0  0  0  0  0  0  0  0
    9.7871    5.0083    2.5240 O   0  0  0  0  0  0  0  0  0  0  0  0
    9.9817    6.1870    3.0621 C   0  0  0  0  0  0  0  0  0  0  0  0
    9.7943    6.6195    4.1798 O   0  0  0  0  0  0  0  0  0  0  0  0
   15.5683   -2.1997   -3.2459 C   0  0  0  0  0  0  0  0  0  0  0  0
   14.6337   -2.7563   -3.8018 O   0  0  0  0  0  0  0  0  0  0  0  0
   16.5816   -2.9513   -2.4230 C   0  0  0  0  0  0  0  0  0  0  0  0
   16.8005   -4.1295   -2.6441 O   0  0  0  0  0  0  0  0  0  0  0  0
   17.3453   -2.1851   -1.3585 C   0  0  0  0  0  0  0  0  0  0  0  0
   18.3213   -2.6555   -0.8013 O   0  0  0  0  0  0  0  0  0  0  0  0
  1  2  1  0  0  0  0
  2  3  2  0  0  0  0
  3  4  1  0  0  0  0
  3 52  1  0  0  0  0
  4  5  1  0  0  0  0
  5  6  1  6  0  0  0
  5 48  1  0  0  0  0
  6  7  1  0  0  0  0
  7  8  2  0  0  0  0
  7 12  1  0  0  0  0
  8  9  1  0  0  0  0
  8 25  1  0  0  0  0
  9 10  1  0  0  0  0
 10 11  2  0  0  0  0
 10 16  1  0  0  0  0
 11 12  1  0  0  0  0
 11 13  1  0  0  0  0
 13 14  1  0  0  0  0
 13 22  1  0  0  0  0
 14 15  2  0  0  0  0
 14 20  1  0  0  0  0
 15 16  1  0  0  0  0
 15 17  1  0  0  0  0
 17 18  1  0  0  0  0
 17 19  1  0  0  0  0
 18 19  1  0  0  0  0
 20 21  1  0  0  0  0
 21 22  1  0  0  0  0
 21 23  1  0  0  0  0
 22 23  1  0  0  0  0
 23 24  2  0  0  0  0
 25 26  2  0  0  0  0
 25 31  1  0  0  0  0
 26 27  1  0  0  0  0
 27 28  1  0  0  0  0
 27 29  2  0  0  0  0
 29 30  1  0  0  0  0
 30 31  2  0  0  0  0
 30 35  1  0  0  0  0
 31 32  1  0  0  0  0
 32 33  2  0  0  0  0
 33 34  1  0  0  0  0
 33 41  1  0  0  0  0
 34 35  2  0  0  0  0
 34 37  1  0  0  0  0
 35 36  1  0  0  0  0
 38 37  1  6  0  0  0
 38 39  1  0  0  0  0
 38 43  1  0  0  0  0
 38 44  1  0  0  0  0
 39 40  2  0  0  0  0
 39 41  1  0  0  0  0
 41 42  2  0  0  0  0
 44 43  1  6  0  0  0
 44 45  1  0  0  0  0
 44 46  1  0  0  0  0
 45 46  1  0  0  0  0
 46 47  2  0  0  0  0
 48 49  2  0  0  0  0
 48 50  1  0  0  0  0
 50 51  2  0  0  0  0
 50 52  1  0  0  0  0
 52 53  2  0  0  0  0
M  CHG  1  27   1
M  END
$$$$