
 OpenBabel11232002223D

 54 63  0  0  1  0  0  0  0  0999 V2000
  -11.6337   -9.9940   12.0601 O   0  0  0  0  0  0  0  0  0  0  0  0
  -11.5797   -8.6884   12.4795 C   0  0  0  0  0  0  0  0  0  0  0  0
  -10.6000   -7.8576   12.1073 C   0  0  0  0  0  0  0  0  0  0  0  0
   -9.5597   -8.3042   11.3073 O   0  0  0  0  0  0  0  0  0  0  0  0
   -9.1759   -7.3722   10.3166 C   0  0  2  0  0  0  0  0  0  0  0  0
   -8.0036   -7.8460    9.6076 O   0  0  0  0  0  0  0  0  0  0  0  0
   -8.1527   -8.6490    8.4921 C   0  0  0  0  0  0  0  0  0  0  0  0
   -7.2173   -8.6434    7.5110 C   0  0  0  0  0  0  0  0  0  0  0  0
   -7.3318   -9.4848    6.3993 O   0  0  0  0  0  0  0  0  0  0  0  0
   -8.3480  -10.4336    6.3158 C   0  0  0  0  0  0  0  0  0  0  0  0
   -9.3152  -10.5059    7.2493 C   0  0  0  0  0  0  0  0  0  0  0  0
   -9.3345   -9.5963    8.4471 C   0  0  0  0  0  0  0  0  0  0  0  0
  -10.4397  -11.5032    7.1420 C   0  0  3  0  0  0  0  0  0  0  0  0
  -11.6709  -10.8016    7.1999 O   0  0  0  0  0  0  0  0  0  0  0  0
  -12.7651  -11.6151    7.2604 C   0  0  0  0  0  0  0  0  0  0  0  0
  -13.8197  -11.2505    7.7485 O   0  0  0  0  0  0  0  0  0  0  0  0
  -12.5496  -12.8653    6.7737 O   0  0  0  0  0  0  0  0  0  0  0  0
  -11.7157  -12.9492    5.6273 C   0  0  3  0  0  0  0  0  0  0  0  0
  -10.4358  -12.2032    5.8314 C   0  0  0  0  0  0  0  0  0  0  0  0
   -9.4159  -12.0984    4.9485 C   0  0  0  0  0  0  0  0  0  0  0  0
   -8.3291  -11.2824    5.2284 O   0  3  0  0  0  0  0  0  0  0  0  0
   -9.3920  -12.7647    3.6237 C   0  0  0  0  0  0  0  0  0  0  0  0
   -9.8938  -12.0955    2.4593 O   0  0  0  0  0  0  0  0  0  0  0  0
   -8.4782  -12.3148    2.6058 O   0  0  0  0  0  0  0  0  0  0  0  0
  -11.3520  -14.2986    5.4244 O   0  0  0  0  0  0  0  0  0  0  0  0
   -5.9879   -7.7627    7.5035 C   0  0  0  0  0  0  0  0  0  0  0  0
   -6.0705   -6.4640    8.0100 C   0  0  0  0  0  0  0  0  0  0  0  0
   -5.0038   -5.6620    8.0854 N   0  3  0  0  0  0  0  0  0  0  0  0
   -5.1279   -4.4556    8.6727 F   0  0  0  0  0  0  0  0  0  0  0  0
   -3.8329   -5.9979    7.5899 N   0  0  0  0  0  0  0  0  0  0  0  0
   -3.6838   -7.1830    7.0018 C   0  0  0  0  0  0  0  0  0  0  0  0
   -4.7302   -8.1347    6.9530 C   0  0  0  0  0  0  0  0  0  0  0  0
   -4.4488   -9.3708    6.3234 C   0  0  0  0  0  0  0  0  0  0  0  0
   -3.2260   -9.6109    5.6896 C   0  0  0  0  0  0  0  0  0  0  0  0
   -2.2131   -8.6690    5.7386 C   0  0  0  0  0  0  0  0  0  0  0  0
   -2.4581   -7.4697    6.3971 C   0  0  0  0  0  0  0  0  0  0  0  0
   -1.4967   -6.5333    6.4122 F   0  0  0  0  0  0  0  0  0  0  0  0
   -1.0002   -8.8404    5.1194 O   0  0  0  0  0  0  0  0  0  0  0  0
   -0.6431  -10.2288    4.9124 C   0  0  1  0  0  0  0  0  0  0  0  0
   -1.6858  -11.0616    4.3001 C   0  0  0  0  0  0  0  0  0  0  0  0
   -1.5151  -11.9442    3.3746 N   0  0  0  0  0  0  0  0  0  0  0  0
   -3.0523  -10.8132    4.8673 C   0  0  0  0  0  0  0  0  0  0  0  0
   -4.0457  -11.6103    4.5910 N   0  0  0  0  0  0  0  0  0  0  0  0
    0.6784  -10.4946    4.5291 O   0  0  0  0  0  0  0  0  0  0  0  0
    0.2852  -10.8998    5.8803 C   0  0  1  0  0  0  0  0  0  0  0  0
    0.4870   -9.9552    6.9916 O   0  0  0  0  0  0  0  0  0  0  0  0
    1.4668  -10.7805    6.6955 C   0  0  0  0  0  0  0  0  0  0  0  0
    2.0648  -11.5884    7.3790 O   0  0  0  0  0  0  0  0  0  0  0  0
   -8.7245   -6.0329   10.8794 C   0  0  0  0  0  0  0  0  0  0  0  0
   -7.8967   -5.3027   10.3411 O   0  0  0  0  0  0  0  0  0  0  0  0
   -9.4238   -5.6468   12.1571 C   0  0  0  0  0  0  0  0  0  0  0  0
   -8.9943   -4.7200   12.8215 O   0  0  0  0  0  0  0  0  0  0  0  0
  -10.6309   -6.4488   12.5937 C   0  0  0  0  0  0  0  0  0  0  0  0
  -11.5490   -5.9450   13.2127 O   0  0  0  0  0  0  0  0  0  0  0  0
  1  2  1  0  0  0  0
  2  3  2  0  0  0  0
  3  4  1  0  0  0  0
  3 53  1  0  0  0  0
  4  5  1  0  0  0  0
  5  6  1  1  0  0  0
  5 49  1  0  0  0  0
  6  7  1  0  0  0  0
  7  8  2  0  0  0  0
  7 12  1  0  0  0  0
  8  9  1  0  0  0  0
  8 26  1  0  0  0  0
  9 10  1  0  0  0  0
 10 11  2  0  0  0  0
 10 21  1  0  0  0  0
 11 12  1  0  0  0  0
 11 13  1  0  0  0  0
 13 14  1  0  0  0  0
 13 19  1  0  0  0  0
 14 15  1  0  0  0  0
 15 16  2  0  0  0  0
 15 17  1  0  0  0  0
 17 18  1  0  0  0  0
 18 19  1  0  0  0  0
 18 25  1  0  0  0  0
 19 20  2  0  0  0  0
 20 21  1  0  0  0  0
 20 22  1  0  0  0  0
 22 23  1  0  0  0  0
 22 24  1  0  0  0  0
 23 24  1  0  0  0  0
 26 27  2  0  0  0  0
 26 32  1  0  0  0  0
 27 28  1  0  0  0  0
 28 29  1  0  0  0  0
 28 30  2  0  0  0  0
 30 31  1  0  0  0  0
 31 32  2  0  0  0  0
 31 36  1  0  0  0  0
 32 33  1  0  0  0  0
 33 34  2  0  0  0  0
 34 35  1  0  0  0  0
 34 42  1  0  0  0  0
 35 36  2  0  0  0  0
 35 38  1  0  0  0  0
 36 37  1  0  0  0  0
 39 38  1  1  0  0  0
 39 40  1  0  0  0  0
 39 44  1  0  0  0  0
 39 45  1  0  0  0  0
 40 41  2  0  0  0  0
 40 42  1  0  0  0  0
 42 43  2  0  0  0  0
 45 44  1  6  0  0  0
 45 46  1  0  0  0  0
 45 47  1  0  0  0  0
 46 47  1  0  0  0  0
 47 48  2  0  0  0  0
 49 50  2  0  0  0  0
 49 51  1  0  0  0  0
 51 52  2  0  0  0  0
 51 53  1  0  0  0  0
 53 54  2  0  0  0  0
M  CHG  2  21   1  28   1
M  END
$$$$