
 OpenBabel11242012483D

 90105  0  0  1  0  0  0  0  0999 V2000
    5.9840    6.1918    0.6750 F   0  0  0  0  0  0  0  0  0  0  0  0
    5.5227    5.0056    1.1737 C   0  0  3  0  0  0  0  0  0  0  0  0
    4.6012    5.3169    2.3742 C   0  0  0  0  0  0  0  0  0  0  0  0
    3.1158    4.9445    2.1236 C   0  0  3  0  0  0  0  0  0  0  0  0
    2.2510    5.3001    3.3405 C   0  0  0  0  0  0  0  0  0  0  0  0
    1.7844    4.0842    4.1284 C   0  0  0  0  0  0  0  0  0  0  0  0
    1.1689    3.0357    3.2029 C   0  0  3  0  0  0  0  0  0  0  0  0
    2.1800    2.5198    2.2005 C   0  0  0  0  0  0  0  0  0  0  0  0
    3.0615    3.4920    1.6538 C   0  0  0  0  0  0  0  0  0  0  0  0
    4.0117    3.1408    0.6800 C   0  0  0  0  0  0  0  0  0  0  0  0
    4.7999    4.2601    0.0395 C   0  0  3  0  0  0  0  0  0  0  0  0
    5.7106    3.8820   -1.1751 C   0  0  3  0  0  0  0  0  0  0  0  0
    5.6492    2.3767   -1.5384 C   0  0  0  0  0  0  0  0  0  0  0  0
    5.4568    1.4227   -0.3759 C   0  0  0  0  0  0  0  0  0  0  0  0
    4.2341    1.8062    0.3969 C   0  0  0  0  0  0  0  0  0  0  0  0
    3.3659    0.8413    0.9273 C   0  0  0  0  0  0  0  0  0  0  0  0
    2.2852    1.1533    1.7964 C   0  0  0  0  0  0  0  0  0  0  0  0
    1.3999    0.0221    2.2586 C   0  0  0  0  0  0  0  0  0  0  0  0
    1.9218   -1.2789    2.4534 C   0  0  0  0  0  0  0  0  0  0  0  0
    1.1383   -2.3730    2.8950 C   0  0  0  0  0  0  0  0  0  0  0  0
   -0.2111   -2.1745    3.2060 C   0  0  0  0  0  0  0  0  0  0  0  0
   -0.7618   -0.9103    2.9866 C   0  0  0  0  0  0  0  0  0  0  0  0
    0.0186    0.1372    2.4812 C   0  0  0  0  0  0  0  0  0  0  0  0
   -0.6301    1.2748    2.1892 F   0  0  0  0  0  0  0  0  0  0  0  0
   -1.0592   -3.2549    3.8294 C   0  0  0  0  0  0  0  0  0  0  0  0
   -0.4918   -4.6650    3.6713 C   0  0  0  0  0  0  0  0  0  0  0  0
    1.0185   -4.6872    3.9488 C   0  0  3  0  0  0  0  0  0  0  0  0
    1.7665   -3.7562    2.9686 C   0  0  3  0  0  0  0  0  0  0  0  0
    1.8482   -4.3547    1.5482 C   0  0  0  0  0  0  0  0  0  0  0  0
    2.4095   -5.7725    1.5436 C   0  0  0  0  0  0  0  0  0  0  0  0
    1.6505   -6.6913    2.4924 C   0  0  0  0  0  0  0  0  0  0  0  0
    1.5913   -6.1125    3.9029 C   0  0  0  0  0  0  0  0  0  0  0  0
    5.3240    4.7430   -2.4432 C   0  0  3  0  0  0  0  0  0  0  0  0
    5.4703    6.1506   -2.1366 O   0  0  0  0  0  0  0  0  0  0  0  0
    6.0304    6.9252   -3.1058 C   0  0  0  0  0  0  0  0  0  0  0  0
    7.0577    6.4670   -3.9398 C   0  0  0  0  0  0  0  0  0  0  0  0
    7.3989    5.0200   -3.8240 C   0  0  3  0  0  0  0  0  0  0  0  0
    6.0526    4.2860   -3.7491 C   0  0  3  0  0  0  0  0  0  0  0  0
    5.1957    4.6464   -4.8842 O   0  0  0  0  0  0  0  0  0  0  0  0
    5.2733    3.8794   -6.0167 C   0  0  0  0  0  0  0  0  0  0  0  0
    5.5857    2.5214   -6.0519 C   0  0  0  0  0  0  0  0  0  0  0  0
    5.6232    1.8356   -7.2681 C   0  0  0  0  0  0  0  0  0  0  0  0
    5.3255    2.4934   -8.4574 C   0  0  0  0  0  0  0  0  0  0  0  0
    4.9842    3.8433   -8.4328 C   0  0  0  0  0  0  0  0  0  0  0  0
    4.9515    4.5313   -7.2147 C   0  0  0  0  0  0  0  0  0  0  0  0
    8.1540    4.6122   -4.9707 O   0  0  0  0  0  0  0  0  0  0  0  0
    7.5037    7.2480   -5.0061 C   0  0  0  0  0  0  0  0  0  0  0  0
    6.8651    8.4547   -5.3685 C   0  0  0  0  0  0  0  0  0  0  0  0
    5.8403    8.9114   -4.5276 C   0  0  0  0  0  0  0  0  0  0  0  0
    5.4961    8.1848   -3.3599 C   0  0  0  0  0  0  0  0  0  0  0  0
    4.4817    8.6527   -2.5808 F   0  0  0  0  0  0  0  0  0  0  0  0
    5.1354   10.0663   -4.9211 C   0  0  0  0  0  0  0  0  0  0  0  0
    4.1004   10.6321   -4.1859 O   0  0  0  0  0  0  0  0  0  0  0  0
    5.3423   10.6519   -6.1740 C   0  0  0  0  0  0  0  0  0  0  0  0
    6.2788   10.1636   -7.1287 C   0  0  0  0  0  0  0  0  0  0  0  0
    7.1055    9.1407   -6.6025 C   0  0  0  0  0  0  0  0  0  0  0  0
    8.2230    8.7816   -7.2912 O   0  0  0  0  0  0  0  0  0  0  0  0
    6.2374   10.6846   -8.5760 C   0  0  0  0  0  0  0  0  0  0  0  0
    5.2191   11.6181   -8.9535 C   0  0  0  0  0  0  0  0  0  0  0  0
    4.9273   12.1291  -10.2851 C   0  0  0  0  0  0  0  0  0  0  0  0
    3.8623   13.1001  -10.8351 C   0  0  0  0  0  0  0  0  0  0  0  0
    4.0073   13.5362  -12.1711 C   0  0  0  0  0  0  0  0  0  0  0  0
    3.1486   14.4555  -12.8362 N   0  0  0  0  0  0  0  0  0  0  0  0
    5.0344   12.9647  -12.9220 C   0  0  0  0  0  0  0  0  0  0  0  0
    5.9036   12.0645  -12.4657 N   0  0  0  0  0  0  0  0  0  0  0  0
    5.8850   11.6633  -11.2062 N   0  3  0  0  0  0  0  0  0  0  0  0
    6.8657   10.7892  -10.8842 N   0  3  0  0  0  0  0  0  0  0  0  0
    7.0613   10.2638   -9.6475 C   0  0  0  0  0  0  0  0  0  0  0  0
    8.0546    9.3575   -9.6022 O   0  0  0  0  0  0  0  0  0  0  0  0
    7.7870   10.3133  -11.8447 O   0  0  0  0  0  0  0  0  0  0  0  0
    2.5558   13.6747  -10.0048 N   0  3  0  0  0  0  0  0  0  0  0  0
    1.9230   14.9246  -10.2749 N   0  3  0  0  0  0  0  0  0  0  0  0
    2.4839   15.9388  -11.0496 O   0  0  0  0  0  0  0  0  0  0  0  0
    0.8021   15.3841   -9.6014 C   0  0  0  0  0  0  0  0  0  0  0  0
    0.1428   14.6870   -8.5670 C   0  0  0  0  0  0  0  0  0  0  0  0
    0.7170   13.4508   -8.2593 C   0  0  0  0  0  0  0  0  0  0  0  0
    1.9103   12.9398   -8.9988 C   0  0  0  0  0  0  0  0  0  0  0  0
    2.3446   11.6359   -8.6906 N   0  0  0  0  0  0  0  0  0  0  0  0
    0.1391   12.7459   -7.2651 N   0  0  0  0  0  0  0  0  0  0  0  0
   -0.9283   13.1619   -6.5601 N   0  3  0  0  0  0  0  0  0  0  0  0
   -1.5553   14.3600   -6.7974 C   0  0  0  0  0  0  0  0  0  0  0  0
   -1.0056   15.1223   -7.8307 N   0  3  0  0  0  0  0  0  0  0  0  0
   -1.6165   16.3195   -8.1266 N   0  0  0  0  0  0  0  0  0  0  0  0
   -2.7180   16.7584   -7.4433 N   0  3  0  0  0  0  0  0  0  0  0  0
   -3.3650   18.0663   -7.8183 C   0  0  0  0  0  0  0  0  0  0  0  0
   -3.2251   16.0297   -6.4316 C   0  0  0  0  0  0  0  0  0  0  0  0
   -2.6463   14.8526   -6.1196 N   0  3  0  0  0  0  0  0  0  0  0  0
   -3.1681   14.0948   -5.0577 O   0  0  0  0  0  0  0  0  0  0  0  0
   -1.4312   12.3366   -5.5599 O   0  0  0  0  0  0  0  0  0  0  0  0
    0.1131    3.6665    2.4669 O   0  0  0  0  0  0  0  0  0  0  0  0
  1  2  1  0  0  0  0
  2  3  1  0  0  0  0
  2 11  1  0  0  0  0
  3  4  1  0  0  0  0
  4  5  1  0  0  0  0
  4  9  1  0  0  0  0
  5  6  1  0  0  0  0
  6  7  1  0  0  0  0
  7  8  1  0  0  0  0
  7 90  1  0  0  0  0
  8  9  2  0  0  0  0
  8 17  1  0  0  0  0
  9 10  1  0  0  0  0
 10 11  1  0  0  0  0
 10 15  2  0  0  0  0
 11 12  1  0  0  0  0
 12 13  1  0  0  0  0
 12 33  1  0  0  0  0
 13 14  1  0  0  0  0
 14 15  1  0  0  0  0
 15 16  1  0  0  0  0
 16 17  2  0  0  0  0
 17 18  1  0  0  0  0
 18 19  2  0  0  0  0
 18 23  1  0  0  0  0
 19 20  1  0  0  0  0
 20 21  2  0  0  0  0
 20 28  1  0  0  0  0
 21 22  1  0  0  0  0
 21 25  1  0  0  0  0
 22 23  2  0  0  0  0
 23 24  1  0  0  0  0
 25 26  1  0  0  0  0
 26 27  1  0  0  0  0
 27 28  1  0  0  0  0
 27 32  1  0  0  0  0
 28 29  1  0  0  0  0
 29 30  1  0  0  0  0
 30 31  1  0  0  0  0
 31 32  1  0  0  0  0
 33 34  1  0  0  0  0
 33 38  1  0  0  0  0
 34 35  1  0  0  0  0
 35 36  2  0  0  0  0
 35 50  1  0  0  0  0
 36 37  1  0  0  0  0
 36 47  1  0  0  0  0
 37 38  1  0  0  0  0
 37 46  1  0  0  0  0
 38 39  1  0  0  0  0
 39 40  1  0  0  0  0
 40 41  2  0  0  0  0
 40 45  1  0  0  0  0
 41 42  1  0  0  0  0
 42 43  2  0  0  0  0
 43 44  1  0  0  0  0
 44 45  2  0  0  0  0
 47 48  2  0  0  0  0
 48 49  1  0  0  0  0
 48 56  1  0  0  0  0
 49 50  2  0  0  0  0
 49 52  1  0  0  0  0
 50 51  1  0  0  0  0
 52 53  1  0  0  0  0
 52 54  2  0  0  0  0
 54 55  1  0  0  0  0
 55 56  2  0  0  0  0
 55 58  1  0  0  0  0
 56 57  1  0  0  0  0
 58 59  2  0  0  0  0
 58 68  1  0  0  0  0
 59 60  1  0  0  0  0
 60 61  2  0  0  0  0
 60 66  1  0  0  0  0
 61 62  1  0  0  0  0
 61 71  1  0  0  0  0
 62 63  1  0  0  0  0
 62 64  2  0  0  0  0
 64 65  1  0  0  0  0
 65 66  2  0  0  0  0
 66 67  1  0  0  0  0
 67 68  2  0  0  0  0
 67 70  1  0  0  0  0
 68 69  1  0  0  0  0
 71 72  2  0  0  0  0
 71 77  1  0  0  0  0
 72 73  1  0  0  0  0
 72 74  1  0  0  0  0
 74 75  2  0  0  0  0
 75 76  1  0  0  0  0
 75 82  1  0  0  0  0
 76 77  2  0  0  0  0
 76 79  1  0  0  0  0
 77 78  1  0  0  0  0
 79 80  2  0  0  0  0
 80 81  1  0  0  0  0
 80 89  1  0  0  0  0
 81 82  2  0  0  0  0
 81 87  1  0  0  0  0
 82 83  1  0  0  0  0
 83 84  2  0  0  0  0
 84 85  1  0  0  0  0
 84 86  1  0  0  0  0
 86 87  2  0  0  0  0
 87 88  1  0  0  0  0
M  CHG  8  66   1  67   1  71   1  72   1  80   1  82   1  84   1  87   1
M  END
$$$$