
 OpenBabel11222022303D

 54 64  0  0  1  0  0  0  0  0999 V2000
    6.3052    1.9105    4.4730 O   0  0  0  0  0  0  0  0  0  0  0  0
    5.8329    2.6168    3.3934 C   0  0  0  0  0  0  0  0  0  0  0  0
    4.6926    2.3132    2.7592 C   0  0  0  0  0  0  0  0  0  0  0  0
    3.9306    1.2181    3.1303 O   0  0  0  0  0  0  0  0  0  0  0  0
    2.5334    1.5015    3.1834 C   0  0  2  0  0  0  0  0  0  0  0  0
    1.7970    0.3297    3.6718 O   0  0  0  0  0  0  0  0  0  0  0  0
    2.1973   -0.1702    4.9074 C   0  0  0  0  0  0  0  0  0  0  0  0
    2.1555   -1.4853    5.2656 C   0  0  0  0  0  0  0  0  0  0  0  0
    2.5205   -1.8703    6.5957 O   0  0  0  0  0  0  0  0  0  0  0  0
    2.8425   -0.9049    7.5723 C   0  0  0  0  0  0  0  0  0  0  0  0
    2.8400    0.3992    7.2658 C   0  0  0  0  0  0  0  0  0  0  0  0
    2.5695    0.8959    5.9005 C   0  0  0  0  0  0  0  0  0  0  0  0
    3.1370    1.4826    8.2580 C   0  0  3  0  0  0  0  0  0  0  0  0
    1.9447    2.2256    8.4227 O   0  0  0  0  0  0  0  0  0  0  0  0
    1.9627    3.2472    9.3202 C   0  0  0  0  0  0  0  0  0  0  0  0
    1.1104    4.1187    9.2980 O   0  0  0  0  0  0  0  0  0  0  0  0
    2.9670    3.2205   10.2279 O   0  0  0  0  0  0  0  0  0  0  0  0
    3.7608    2.0698   10.5024 C   0  0  3  0  0  0  0  0  0  0  0  0
    3.4724    0.9377    9.5824 C   0  0  0  0  0  0  0  0  0  0  0  0
    3.4876   -0.3863    9.8477 C   0  0  0  0  0  0  0  0  0  0  0  0
    3.1568   -1.3120    8.8578 O   0  3  0  0  0  0  0  0  0  0  0  0
    3.8252   -0.9409   11.1781 C   0  0  0  0  0  0  0  0  0  0  0  0
    2.8045   -1.1741   12.1552 O   0  0  0  0  0  0  0  0  0  0  0  0
    3.4575   -2.2887   11.5165 O   0  0  0  0  0  0  0  0  0  0  0  0
    5.1173    2.3868   10.2602 O   0  0  0  0  0  0  0  0  0  0  0  0
    1.6326   -2.6572    4.4314 C   0  0  0  0  0  0  0  0  0  0  0  0
    1.0682   -3.7307    5.1334 C   0  0  0  0  0  0  0  0  0  0  0  0
    0.4729   -4.7554    4.5078 N   0  3  0  0  0  0  0  0  0  0  0  0
   -0.0277   -5.7725    5.2377 F   0  0  0  0  0  0  0  0  0  0  0  0
    0.3136   -4.7933    3.2037 N   0  0  0  0  0  0  0  0  0  0  0  0
    0.8212   -3.8217    2.4497 C   0  0  0  0  0  0  0  0  0  0  0  0
    1.5710   -2.7622    3.0061 C   0  0  0  0  0  0  0  0  0  0  0  0
    2.1858   -1.8918    2.0759 C   0  0  0  0  0  0  0  0  0  0  0  0
    1.8571   -1.8923    0.7087 C   0  0  0  0  0  0  0  0  0  0  0  0
    1.0374   -2.8659    0.1940 C   0  0  0  0  0  0  0  0  0  0  0  0
    0.5811   -3.8520    1.0685 C   0  0  0  0  0  0  0  0  0  0  0  0
   -0.1601   -4.8523    0.5655 F   0  0  0  0  0  0  0  0  0  0  0  0
    0.6936   -2.9578   -1.1253 O   0  0  0  0  0  0  0  0  0  0  0  0
    0.8716   -1.8000   -1.9757 C   0  0  1  0  0  0  0  0  0  0  0  0
    1.6732   -0.6541   -1.5091 C   0  0  0  0  0  0  0  0  0  0  0  0
    1.7297    0.3610   -2.1780 O   0  0  0  0  0  0  0  0  0  0  0  0
    2.3392   -0.8212   -0.1617 C   0  0  0  0  0  0  0  0  0  0  0  0
    3.1974   -0.0482    0.2324 O   0  0  0  0  0  0  0  0  0  0  0  0
    1.1113   -2.1174   -3.4078 N   0  0  3  0  0  0  0  0  0  0  0  0
   -0.1644   -1.5959   -3.0121 C   0  0  1  0  0  0  0  0  0  0  0  0
    0.3684   -1.2220   -4.2681 O   0  3  0  0  0  0  0  0  0  0  0  0
   -0.5346   -0.3872   -3.6673 C   0  0  0  0  0  0  0  0  0  0  0  0
   -1.6044    0.0420   -4.0343 O   0  0  0  0  0  0  0  0  0  0  0  0
    1.9796    1.9087    1.8251 C   0  0  0  0  0  0  0  0  0  0  0  0
    0.8768    1.5829    1.3987 O   0  0  0  0  0  0  0  0  0  0  0  0
    2.9394    2.7534    1.0101 C   0  0  0  0  0  0  0  0  0  0  0  0
    2.6505    3.0569   -0.1362 O   0  0  0  0  0  0  0  0  0  0  0  0
    4.2606    3.1767    1.6232 C   0  0  0  0  0  0  0  0  0  0  0  0
    4.8622    4.1668    1.2492 O   0  0  0  0  0  0  0  0  0  0  0  0
  1  2  1  0  0  0  0
  2  3  2  0  0  0  0
  3  4  1  0  0  0  0
  3 53  1  0  0  0  0
  4  5  1  0  0  0  0
  5  6  1  6  0  0  0
  5 49  1  0  0  0  0
  6  7  1  0  0  0  0
  7  8  2  0  0  0  0
  7 12  1  0  0  0  0
  8  9  1  0  0  0  0
  8 26  1  0  0  0  0
  9 10  1  0  0  0  0
 10 11  2  0  0  0  0
 10 21  1  0  0  0  0
 11 12  1  0  0  0  0
 11 13  1  0  0  0  0
 13 14  1  0  0  0  0
 13 19  1  0  0  0  0
 14 15  1  0  0  0  0
 15 16  2  0  0  0  0
 15 17  1  0  0  0  0
 17 18  1  0  0  0  0
 18 19  1  0  0  0  0
 18 25  1  0  0  0  0
 19 20  2  0  0  0  0
 20 21  1  0  0  0  0
 20 22  1  0  0  0  0
 22 23  1  0  0  0  0
 22 24  1  0  0  0  0
 23 24  1  0  0  0  0
 26 27  2  0  0  0  0
 26 32  1  0  0  0  0
 27 28  1  0  0  0  0
 28 29  1  0  0  0  0
 28 30  2  0  0  0  0
 30 31  1  0  0  0  0
 31 32  2  0  0  0  0
 31 36  1  0  0  0  0
 32 33  1  0  0  0  0
 33 34  2  0  0  0  0
 34 35  1  0  0  0  0
 34 42  1  0  0  0  0
 35 36  2  0  0  0  0
 35 38  1  0  0  0  0
 36 37  1  0  0  0  0
 39 38  1  1  0  0  0
 39 40  1  0  0  0  0
 39 44  1  0  0  0  0
 39 45  1  0  0  0  0
 40 41  2  0  0  0  0
 40 42  1  0  0  0  0
 42 43  2  0  0  0  0
 44 45  1  0  0  0  0
 44 46  1  0  0  0  0
 45 46  1  1  0  0  0
 45 47  1  0  0  0  0
 46 47  1  0  0  0  0
 47 48  2  0  0  0  0
 49 50  2  0  0  0  0
 49 51  1  0  0  0  0
 51 52  2  0  0  0  0
 51 53  1  0  0  0  0
 53 54  2  0  0  0  0
M  CHG  3  21   1  28   1  46   1
M  END
$$$$