
 OpenBabel11262001013D

 54 62  0  0  1  0  0  0  0  0999 V2000
    0.5205   -5.9292   -4.1114 O   0  0  0  0  0  0  0  0  0  0  0  0
    0.0704   -4.7110   -3.6684 C   0  0  0  0  0  0  0  0  0  0  0  0
    0.0144   -4.3751   -2.3741 C   0  0  0  0  0  0  0  0  0  0  0  0
    0.3754   -5.2724   -1.3776 O   0  0  0  0  0  0  0  0  0  0  0  0
    0.9614   -4.6872   -0.2111 C   0  0  2  0  0  0  0  0  0  0  0  0
    0.9719   -5.6836    0.8853 O   0  0  0  0  0  0  0  0  0  0  0  0
    1.6184   -6.8945    0.6600 C   0  0  0  0  0  0  0  0  0  0  0  0
    1.2119   -8.0180    1.2935 C   0  0  0  0  0  0  0  0  0  0  0  0
    1.8195   -9.2736    1.0782 O   0  0  0  0  0  0  0  0  0  0  0  0
    2.8441   -9.4017    0.0966 C   0  0  0  0  0  0  0  0  0  0  0  0
    3.3352   -8.3022   -0.5165 C   0  0  0  0  0  0  0  0  0  0  0  0
    2.8348   -6.9129   -0.2394 C   0  0  0  0  0  0  0  0  0  0  0  0
    4.3823   -8.3869   -1.6103 C   0  0  3  0  0  0  0  0  0  0  0  0
    5.5533   -7.7158   -1.1972 O   0  0  0  0  0  0  0  0  0  0  0  0
    6.5988   -7.8125   -2.0613 C   0  0  0  0  0  0  0  0  0  0  0  0
    7.5827   -7.0101   -1.9491 N   0  0  0  0  0  0  0  0  0  0  0  0
    6.5791   -8.7609   -3.0259 O   0  0  0  0  0  0  0  0  0  0  0  0
    5.7532   -9.8192   -2.9537 C   0  0  0  0  0  0  0  0  0  0  0  0
    5.7518  -10.7581   -3.7325 O   0  0  0  0  0  0  0  0  0  0  0  0
    4.7687   -9.7742   -1.8773 C   0  0  0  0  0  0  0  0  0  0  0  0
    4.2647  -10.8489   -1.2433 C   0  0  0  0  0  0  0  0  0  0  0  0
    3.3228  -10.6701   -0.2310 O   0  3  0  0  0  0  0  0  0  0  0  0
    4.6043  -12.2647   -1.5507 C   0  0  0  0  0  0  0  0  0  0  0  0
    4.0167  -13.3198   -0.7626 O   0  0  0  0  0  0  0  0  0  0  0  0
    3.6141  -13.1266   -2.1300 O   0  0  0  0  0  0  0  0  0  0  0  0
    0.1228   -7.9589    2.3268 C   0  0  0  0  0  0  0  0  0  0  0  0
    0.4682   -7.7471    3.6696 C   0  0  0  0  0  0  0  0  0  0  0  0
   -0.4845   -7.5923    4.5942 N   0  3  0  0  0  0  0  0  0  0  0  0
   -0.1415   -7.4350    5.8916 F   0  0  0  0  0  0  0  0  0  0  0  0
   -1.7662   -7.5863    4.2706 N   0  0  0  0  0  0  0  0  0  0  0  0
   -2.1401   -7.7823    3.0021 N   0  3  0  0  0  0  0  0  0  0  0  0
   -1.2086   -8.0129    1.9951 N   0  3  0  0  0  0  0  0  0  0  0  0
   -1.6768   -8.2954    0.7513 C   0  0  0  0  0  0  0  0  0  0  0  0
   -3.0432   -8.2940    0.4861 C   0  0  0  0  0  0  0  0  0  0  0  0
   -3.4951   -8.5036   -0.8815 C   0  0  0  0  0  0  0  0  0  0  0  0
   -2.6583   -8.8432   -1.6940 O   0  0  0  0  0  0  0  0  0  0  0  0
   -4.9671   -8.2824   -1.1462 C   0  0  0  0  0  0  0  0  0  0  0  0
   -5.5346   -8.9487   -1.9889 O   0  0  0  0  0  0  0  0  0  0  0  0
   -5.6051   -7.3113   -0.1725 C   0  0  1  0  0  0  0  0  0  0  0  0
   -5.2684   -7.7094    1.1993 O   0  0  0  0  0  0  0  0  0  0  0  0
   -3.9545   -7.9707    1.4655 C   0  0  0  0  0  0  0  0  0  0  0  0
   -3.4732   -7.7564    2.7491 C   0  0  0  0  0  0  0  0  0  0  0  0
   -4.3211   -7.4656    3.7429 F   0  0  0  0  0  0  0  0  0  0  0  0
   -5.2490   -5.8700   -0.4817 C   0  0  1  0  0  0  0  0  0  0  0  0
   -5.6023   -5.4083   -1.7894 O   0  0  0  0  0  0  0  0  0  0  0  0
   -5.4020   -4.9470    0.5847 O   0  0  0  0  0  0  0  0  0  0  0  0
   -4.1473   -5.1269    0.1527 C   0  0  0  0  0  0  0  0  0  0  0  0
   -3.1740   -5.5668    0.7718 O   0  0  0  0  0  0  0  0  0  0  0  0
    0.1447   -3.4992    0.2918 C   0  0  3  0  0  0  0  0  0  0  0  0
    0.0132   -2.4139   -0.7540 C   0  0  3  0  0  0  0  0  0  0  0  0
   -0.4809   -2.9965   -2.0488 C   0  0  0  0  0  0  0  0  0  0  0  0
   -1.2013   -2.3842   -2.8285 O   0  0  0  0  0  0  0  0  0  0  0  0
   -0.8122   -1.4545   -0.2490 F   0  0  0  0  0  0  0  0  0  0  0  0
   -1.0915   -3.9916    0.6271 F   0  0  0  0  0  0  0  0  0  0  0  0
  1  2  1  0  0  0  0
  2  3  2  0  0  0  0
  3  4  1  0  0  0  0
  3 51  1  0  0  0  0
  4  5  1  0  0  0  0
  5  6  1  1  0  0  0
  5 49  1  0  0  0  0
  6  7  1  0  0  0  0
  7  8  2  0  0  0  0
  7 12  1  0  0  0  0
  8  9  1  0  0  0  0
  8 26  1  0  0  0  0
  9 10  1  0  0  0  0
 10 11  2  0  0  0  0
 10 22  1  0  0  0  0
 11 12  1  0  0  0  0
 11 13  1  0  0  0  0
 13 14  1  0  0  0  0
 13 20  1  0  0  0  0
 14 15  1  0  0  0  0
 15 16  2  0  0  0  0
 15 17  1  0  0  0  0
 17 18  1  0  0  0  0
 18 19  2  0  0  0  0
 18 20  1  0  0  0  0
 20 21  2  0  0  0  0
 21 22  1  0  0  0  0
 21 23  1  0  0  0  0
 23 24  1  0  0  0  0
 23 25  1  0  0  0  0
 24 25  1  0  0  0  0
 26 27  2  0  0  0  0
 26 32  1  0  0  0  0
 27 28  1  0  0  0  0
 28 29  1  0  0  0  0
 28 30  2  0  0  0  0
 30 31  1  0  0  0  0
 31 32  2  0  0  0  0
 31 42  1  0  0  0  0
 32 33  1  0  0  0  0
 33 34  2  0  0  0  0
 34 35  1  0  0  0  0
 34 41  1  0  0  0  0
 35 36  2  0  0  0  0
 35 37  1  0  0  0  0
 37 38  2  0  0  0  0
 39 37  1  6  0  0  0
 39 40  1  0  0  0  0
 39 44  1  0  0  0  0
 40 41  1  0  0  0  0
 41 42  2  0  0  0  0
 42 43  1  0  0  0  0
 44 45  1  6  0  0  0
 44 46  1  0  0  0  0
 44 47  1  0  0  0  0
 46 47  1  0  0  0  0
 47 48  2  0  0  0  0
 49 50  1  0  0  0  0
 49 54  1  0  0  0  0
 50 51  1  0  0  0  0
 50 53  1  0  0  0  0
 51 52  2  0  0  0  0
M  CHG  4  22   1  28   1  31   1  32   1
M  END
$$$$