
 OpenBabel11152013253D

 56 64  0  0  1  0  0  0  0  0999 V2000
    5.1904    1.3190    8.8005 O   0  0  0  0  0  0  0  0  0  0  0  0
    4.9162    2.4764    8.1235 C   0  0  0  0  0  0  0  0  0  0  0  0
    4.3413    2.4987    6.9144 C   0  0  0  0  0  0  0  0  0  0  0  0
    3.9993    1.3381    6.2470 O   0  0  0  0  0  0  0  0  0  0  0  0
    2.7271    1.4525    5.6036 C   0  0  2  0  0  0  0  0  0  0  0  0
    2.2380    0.1849    5.1385 O   0  0  0  0  0  0  0  0  0  0  0  0
    2.1048   -0.8107    6.1038 C   0  0  0  0  0  0  0  0  0  0  0  0
    2.2123   -2.1269    5.8090 C   0  0  0  0  0  0  0  0  0  0  0  0
    2.1717   -3.1180    6.8086 O   0  0  0  0  0  0  0  0  0  0  0  0
    2.4588   -2.7394    8.1247 C   0  0  0  0  0  0  0  0  0  0  0  0
    2.3610   -1.4557    8.4904 C   0  0  0  0  0  0  0  0  0  0  0  0
    1.8373   -0.4312    7.5418 C   0  0  0  0  0  0  0  0  0  0  0  0
    2.8918   -0.9723    9.7920 C   0  0  3  0  0  0  0  0  0  0  0  0
    1.8675   -0.2557   10.4588 O   0  0  0  0  0  0  0  0  0  0  0  0
    2.2142    0.3392   11.6253 C   0  0  0  0  0  0  0  0  0  0  0  0
    1.6251    1.3262   12.0428 O   0  0  0  0  0  0  0  0  0  0  0  0
    3.2177   -0.2405   12.3225 O   0  0  0  0  0  0  0  0  0  0  0  0
    3.8753   -1.4482   11.9357 C   0  0  3  0  0  0  0  0  0  0  0  0
    3.3498   -2.0488   10.6844 C   0  0  0  0  0  0  0  0  0  0  0  0
    3.3077   -3.3513   10.3228 C   0  0  0  0  0  0  0  0  0  0  0  0
    2.8789   -3.7132    9.0273 O   0  0  0  0  0  0  0  0  0  0  0  0
    3.7180   -4.4926   11.1753 C   0  0  0  0  0  0  0  0  0  0  0  0
    5.0663   -4.9902   11.1648 O   0  0  0  0  0  0  0  0  0  0  0  0
    4.5384   -4.3707   12.3503 O   0  0  0  0  0  0  0  0  0  0  0  0
    5.2358   -1.1151   11.6930 O   0  0  0  0  0  0  0  0  0  0  0  0
    2.4231   -2.6807    4.4558 C   0  0  0  0  0  0  0  0  0  0  0  0
    3.7188   -2.8343    4.1162 N   0  0  0  0  0  0  0  0  0  0  0  0
    4.0165   -3.4639    3.0157 N   0  0  0  0  0  0  0  0  0  0  0  0
    3.0971   -4.0188    2.2568 N   0  0  0  0  0  0  0  0  0  0  0  0
    1.7932   -3.9044    2.5540 C   0  0  0  0  0  0  0  0  0  0  0  0
    1.3820   -3.1743    3.6664 C   0  0  0  0  0  0  0  0  0  0  0  0
   -0.0034   -3.0178    3.9312 C   0  0  0  0  0  0  0  0  0  0  0  0
   -0.9610   -3.6583    3.1364 C   0  0  0  0  0  0  0  0  0  0  0  0
   -2.3884   -3.4722    3.4117 C   0  0  0  0  0  0  0  0  0  0  0  0
   -2.7788   -2.6766    4.2517 O   0  0  0  0  0  0  0  0  0  0  0  0
   -3.3593   -4.2915    2.5949 C   0  0  0  0  0  0  0  0  0  0  0  0
   -4.5630   -4.0770    2.6450 O   0  0  0  0  0  0  0  0  0  0  0  0
   -2.7292   -5.4112    1.7970 C   0  0  1  0  0  0  0  0  0  0  0  0
   -1.4170   -5.1716    1.2788 O   0  0  0  0  0  0  0  0  0  0  0  0
   -0.5645   -4.4590    2.0796 C   0  0  0  0  0  0  0  0  0  0  0  0
    0.8031   -4.5404    1.7811 C   0  0  0  0  0  0  0  0  0  0  0  0
    1.1900   -5.3023    0.6974 O   0  0  0  0  0  0  0  0  0  0  0  0
   -2.7637   -6.7039    2.5749 C   0  0  1  0  0  0  0  0  0  0  0  0
   -2.0792   -6.6808    3.8555 O   0  0  0  0  0  0  0  0  0  0  0  0
   -4.0102   -7.3734    2.5439 O   0  0  0  0  0  0  0  0  0  0  0  0
   -2.9672   -7.9994    1.9741 C   0  0  0  0  0  0  0  0  0  0  0  0
   -2.4747   -9.0850    2.2298 O   0  0  0  0  0  0  0  0  0  0  0  0
    2.8515    2.5029    4.4900 C   0  0  0  0  0  0  0  0  0  0  0  0
    2.3113    2.3731    3.3908 O   0  0  0  0  0  0  0  0  0  0  0  0
    3.5118    3.7991    4.8839 C   0  0  3  0  0  0  0  0  0  0  0  0
    4.0572    3.8209    6.2788 C   0  0  0  0  0  0  0  0  0  0  0  0
    4.2497    4.8753    6.8797 O   0  0  0  0  0  0  0  0  0  0  0  0
    4.6228    4.1642    3.9418 C   0  0  0  0  0  0  0  0  0  0  0  0
    4.7766    3.2884    2.9285 F   0  0  0  0  0  0  0  0  0  0  0  0
    4.3848    5.3781    3.3890 F   0  0  0  0  0  0  0  0  0  0  0  0
    5.8258    4.2410    4.5558 F   0  0  0  0  0  0  0  0  0  0  0  0
  1  2  1  0  0  0  0
  2  3  2  0  0  0  0
  3  4  1  0  0  0  0
  3 51  1  0  0  0  0
  4  5  1  0  0  0  0
  5  6  1  6  0  0  0
  5 48  1  0  0  0  0
  6  7  1  0  0  0  0
  7  8  2  0  0  0  0
  7 12  1  0  0  0  0
  8  9  1  0  0  0  0
  8 26  1  0  0  0  0
  9 10  1  0  0  0  0
 10 11  2  0  0  0  0
 10 21  1  0  0  0  0
 11 12  1  0  0  0  0
 11 13  1  0  0  0  0
 13 14  1  0  0  0  0
 13 19  1  0  0  0  0
 14 15  1  0  0  0  0
 15 16  2  0  0  0  0
 15 17  1  0  0  0  0
 17 18  1  0  0  0  0
 18 19  1  0  0  0  0
 18 25  1  0  0  0  0
 19 20  2  0  0  0  0
 20 21  1  0  0  0  0
 20 22  1  0  0  0  0
 22 23  1  0  0  0  0
 22 24  1  0  0  0  0
 23 24  1  0  0  0  0
 26 27  2  0  0  0  0
 26 31  1  0  0  0  0
 27 28  1  0  0  0  0
 28 29  2  0  0  0  0
 29 30  1  0  0  0  0
 30 31  2  0  0  0  0
 30 41  1  0  0  0  0
 31 32  1  0  0  0  0
 32 33  2  0  0  0  0
 33 34  1  0  0  0  0
 33 40  1  0  0  0  0
 34 35  2  0  0  0  0
 34 36  1  0  0  0  0
 36 37  2  0  0  0  0
 38 36  1  1  0  0  0
 38 39  1  0  0  0  0
 38 43  1  0  0  0  0
 39 40  1  0  0  0  0
 40 41  2  0  0  0  0
 41 42  1  0  0  0  0
 43 44  1  1  0  0  0
 43 45  1  0  0  0  0
 43 46  1  0  0  0  0
 45 46  1  0  0  0  0
 46 47  2  0  0  0  0
 48 49  2  0  0  0  0
 48 50  1  0  0  0  0
 50 51  1  0  0  0  0
 50 53  1  0  0  0  0
 51 52  2  0  0  0  0
 53 54  1  0  0  0  0
 53 55  1  0  0  0  0
 53 56  1  0  0  0  0
M  END
$$$$