
 OpenBabel10242017373D

 51 58  0  0  1  0  0  0  0  0999 V2000
    3.8444   -8.4348   -2.5843 O   0  0  0  0  0  0  0  0  0  0  0  0
    3.3747   -8.0285   -1.3643 C   0  0  0  0  0  0  0  0  0  0  0  0
    3.1424   -6.7413   -1.0779 C   0  0  0  0  0  0  0  0  0  0  0  0
    3.3688   -5.7411   -2.0083 O   0  0  0  0  0  0  0  0  0  0  0  0
    2.4276   -4.6611   -1.9537 C   0  0  2  0  0  0  0  0  0  0  0  0
    2.5846   -3.7362   -3.0481 O   0  0  0  0  0  0  0  0  0  0  0  0
    2.3117   -4.1989   -4.3340 C   0  0  0  0  0  0  0  0  0  0  0  0
    1.8550   -3.3750   -5.3061 C   0  0  0  0  0  0  0  0  0  0  0  0
    1.6351   -3.7803   -6.6204 O   0  0  0  0  0  0  0  0  0  0  0  0
    1.9271   -5.0831   -6.9872 C   0  0  0  0  0  0  0  0  0  0  0  0
    2.3937   -5.9709   -6.1001 C   0  0  0  0  0  0  0  0  0  0  0  0
    2.6521   -5.6295   -4.6734 C   0  0  0  0  0  0  0  0  0  0  0  0
    2.6286   -7.3699   -6.5499 C   0  0  0  0  0  0  0  0  0  0  0  0
    3.0522   -8.2477   -5.7029 N   0  0  0  0  0  0  0  0  0  0  0  0
    3.2541   -9.5462   -6.1088 C   0  0  0  0  0  0  0  0  0  0  0  0
    3.6213  -10.3594   -5.2691 O   0  0  0  0  0  0  0  0  0  0  0  0
    3.0542   -9.9654   -7.4066 N   0  0  0  0  0  0  0  0  0  0  0  0
    2.6215   -9.1166   -8.2781 C   0  0  0  0  0  0  0  0  0  0  0  0
    2.3405   -7.7064   -7.9670 C   0  0  0  0  0  0  0  0  0  0  0  0
    1.8763   -6.7245   -8.7670 C   0  0  0  0  0  0  0  0  0  0  0  0
    1.7082   -5.4204   -8.3009 N   0  0  0  0  0  0  0  0  0  0  0  0
    1.5153   -6.9979  -10.1942 C   0  0  0  0  0  0  0  0  0  0  0  0
    1.2326   -8.0910  -10.6478 O   0  0  0  0  0  0  0  0  0  0  0  0
    1.4844   -5.8643  -10.9313 O   0  0  0  0  0  0  0  0  0  0  0  0
    1.5634   -1.9492   -5.0893 C   0  0  0  0  0  0  0  0  0  0  0  0
    0.2703   -1.6874   -4.8016 N   0  0  0  0  0  0  0  0  0  0  0  0
   -0.0154   -0.4093   -4.5390 C   0  0  0  0  0  0  0  0  0  0  0  0
    0.8537    0.6091   -4.5413 N   0  0  0  0  0  0  0  0  0  0  0  0
    2.1217    0.3293   -4.8543 C   0  0  0  0  0  0  0  0  0  0  0  0
    2.5586   -0.9611   -5.1754 C   0  0  0  0  0  0  0  0  0  0  0  0
    3.9161   -1.1738   -5.5414 C   0  0  0  0  0  0  0  0  0  0  0  0
    4.8362   -0.1195   -5.5277 C   0  0  0  0  0  0  0  0  0  0  0  0
    4.3911    1.1485   -5.1631 C   0  0  0  0  0  0  0  0  0  0  0  0
    3.0467    1.3622   -4.8514 C   0  0  0  0  0  0  0  0  0  0  0  0
    5.1989    2.2469   -5.0637 O   0  0  0  0  0  0  0  0  0  0  0  0
    6.5589    1.9679   -4.7054 C   0  0  2  0  0  0  0  0  0  0  0  0
    7.1783    0.8920   -5.5654 C   0  0  0  0  0  0  0  0  0  0  0  0
    8.3204    0.9533   -5.9973 O   0  0  0  0  0  0  0  0  0  0  0  0
    6.2745   -0.3002   -5.8230 C   0  0  0  0  0  0  0  0  0  0  0  0
    7.0080   -1.7118   -6.3515 S   0  0  0  0  0  0  0  0  0  0  0  0
    6.6721    1.6652   -3.2411 C   0  0  1  0  0  0  0  0  0  0  0  0
    5.9475    0.5357   -2.7266 O   0  0  0  0  0  0  0  0  0  0  0  0
    7.9602    1.8760   -2.6438 O   0  0  0  0  0  0  0  0  0  0  0  0
    7.0155    2.7331   -2.3107 C   0  0  0  0  0  0  0  0  0  0  0  0
    6.9976    3.9461   -2.4210 O   0  0  0  0  0  0  0  0  0  0  0  0
    2.6829   -3.9510   -0.6305 C   0  0  0  0  0  0  0  0  0  0  0  0
    2.9014   -2.7582   -0.4744 O   0  0  0  0  0  0  0  0  0  0  0  0
    2.6590   -4.9001    0.5503 C   0  0  0  0  0  0  0  0  0  0  0  0
    2.6084   -4.4706    1.6921 O   0  0  0  0  0  0  0  0  0  0  0  0
    2.7022   -6.3945    0.2980 C   0  0  0  0  0  0  0  0  0  0  0  0
    2.3876   -7.2080    1.1495 O   0  0  0  0  0  0  0  0  0  0  0  0
  1  2  1  0  0  0  0
  2  3  2  0  0  0  0
  3  4  1  0  0  0  0
  3 50  1  0  0  0  0
  4  5  1  0  0  0  0
  5  6  1  6  0  0  0
  5 46  1  0  0  0  0
  6  7  1  0  0  0  0
  7  8  2  0  0  0  0
  7 12  1  0  0  0  0
  8  9  1  0  0  0  0
  8 25  1  0  0  0  0
  9 10  1  0  0  0  0
 10 11  2  0  0  0  0
 10 21  1  0  0  0  0
 11 12  1  0  0  0  0
 11 13  1  0  0  0  0
 13 14  2  0  0  0  0
 13 19  1  0  0  0  0
 14 15  1  0  0  0  0
 15 16  2  0  0  0  0
 15 17  1  0  0  0  0
 17 18  2  0  0  0  0
 18 19  1  0  0  0  0
 19 20  2  0  0  0  0
 20 21  1  0  0  0  0
 20 22  1  0  0  0  0
 22 23  2  0  0  0  0
 22 24  1  0  0  0  0
 25 26  2  0  0  0  0
 25 30  1  0  0  0  0
 26 27  1  0  0  0  0
 27 28  2  0  0  0  0
 28 29  1  0  0  0  0
 29 30  2  0  0  0  0
 29 34  1  0  0  0  0
 30 31  1  0  0  0  0
 31 32  2  0  0  0  0
 32 33  1  0  0  0  0
 32 39  1  0  0  0  0
 33 34  2  0  0  0  0
 33 35  1  0  0  0  0
 36 35  1  6  0  0  0
 36 37  1  0  0  0  0
 36 41  1  0  0  0  0
 37 38  2  0  0  0  0
 37 39  1  0  0  0  0
 39 40  2  0  0  0  0
 41 42  1  1  0  0  0
 41 43  1  0  0  0  0
 41 44  1  0  0  0  0
 43 44  1  0  0  0  0
 44 45  2  0  0  0  0
 46 47  2  0  0  0  0
 46 48  1  0  0  0  0
 48 49  2  0  0  0  0
 48 50  1  0  0  0  0
 50 51  2  0  0  0  0
M  END
$$$$