
 OpenBabel11272001013D

 53 61  0  0  1  0  0  0  0  0999 V2000
    3.3015   -3.7358   -3.3936 F   0  0  0  0  0  0  0  0  0  0  0  0
    3.5672   -2.5780   -2.7588 C   0  0  0  0  0  0  0  0  0  0  0  0
    3.1095   -2.3357   -1.5288 C   0  0  0  0  0  0  0  0  0  0  0  0
    2.3086   -3.2411   -0.8587 O   0  0  0  0  0  0  0  0  0  0  0  0
    2.5733   -3.3238    0.5477 C   0  0  2  0  0  0  0  0  0  0  0  0
    1.8178   -4.4034    1.1421 O   0  0  0  0  0  0  0  0  0  0  0  0
    2.1189   -5.7159    0.7740 C   0  0  0  0  0  0  0  0  0  0  0  0
    1.4720   -6.7702    1.3238 C   0  0  0  0  0  0  0  0  0  0  0  0
    1.7657   -8.0957    0.9868 O   0  0  0  0  0  0  0  0  0  0  0  0
    2.6225   -8.3723   -0.0725 C   0  0  0  0  0  0  0  0  0  0  0  0
    3.2867   -7.3917   -0.7074 C   0  0  0  0  0  0  0  0  0  0  0  0
    3.1702   -5.9610   -0.2839 C   0  0  0  0  0  0  0  0  0  0  0  0
    4.1213   -7.6547   -1.9310 C   0  0  3  0  0  0  0  0  0  0  0  0
    5.4632   -7.2910   -1.6601 O   0  0  0  0  0  0  0  0  0  0  0  0
    6.3415   -7.4460   -2.6933 C   0  0  0  0  0  0  0  0  0  0  0  0
    7.4315   -6.9008   -2.6996 O   0  0  0  0  0  0  0  0  0  0  0  0
    5.8980   -8.2180   -3.7179 O   0  0  0  0  0  0  0  0  0  0  0  0
    5.0038   -9.2994   -3.4807 C   0  0  3  0  0  0  0  0  0  0  0  0
    4.1558   -9.0903   -2.2761 C   0  0  0  0  0  0  0  0  0  0  0  0
    3.5057  -10.0389   -1.5631 C   0  0  0  0  0  0  0  0  0  0  0  0
    2.7460   -9.6842   -0.4596 O   0  3  0  0  0  0  0  0  0  0  0  0
    3.5592  -11.4826   -1.8818 C   0  0  0  0  0  0  0  0  0  0  0  0
    4.5756  -12.3215   -1.3152 O   0  0  0  0  0  0  0  0  0  0  0  0
    3.2070  -12.4591   -0.8864 O   0  0  0  0  0  0  0  0  0  0  0  0
    4.0781   -9.3696   -4.5494 O   0  0  0  0  0  0  0  0  0  0  0  0
    0.3800   -6.6731    2.3189 C   0  0  0  0  0  0  0  0  0  0  0  0
    0.6895   -6.7999    3.6635 C   0  0  0  0  0  0  0  0  0  0  0  0
   -0.2512   -6.8502    4.6200 N   0  0  0  0  0  0  0  0  0  0  0  0
   -1.5713   -6.7493    4.2782 N   0  0  0  0  0  0  0  0  0  0  0  0
   -1.9536   -6.5795    3.0037 C   0  0  0  0  0  0  0  0  0  0  0  0
   -0.9898   -6.5427    1.9698 C   0  0  0  0  0  0  0  0  0  0  0  0
   -1.4443   -6.3834    0.6426 C   0  0  0  0  0  0  0  0  0  0  0  0
   -2.8075   -6.2359    0.3547 C   0  0  0  0  0  0  0  0  0  0  0  0
   -3.2435   -6.0832   -1.0329 C   0  0  0  0  0  0  0  0  0  0  0  0
   -2.4369   -5.9979   -1.9478 O   0  0  0  0  0  0  0  0  0  0  0  0
   -4.7345   -6.0588   -1.2769 C   0  0  0  0  0  0  0  0  0  0  0  0
   -5.1867   -6.3684   -2.3643 O   0  0  0  0  0  0  0  0  0  0  0  0
   -5.5355   -5.5863   -0.0916 C   0  0  1  0  0  0  0  0  0  0  0  0
   -5.0934   -6.1072    1.1690 O   0  0  0  0  0  0  0  0  0  0  0  0
   -3.7498   -6.2498    1.3672 C   0  0  0  0  0  0  0  0  0  0  0  0
   -3.3077   -6.4427    2.6782 C   0  0  0  0  0  0  0  0  0  0  0  0
   -4.2260   -6.4926    3.6578 F   0  0  0  0  0  0  0  0  0  0  0  0
   -5.5935   -4.0879   -0.0496 C   0  0  1  0  0  0  0  0  0  0  0  0
   -4.3326   -3.3900    0.0490 O   0  0  0  0  0  0  0  0  0  0  0  0
   -6.5233   -3.4665   -0.9359 O   0  0  0  0  0  0  0  0  0  0  0  0
   -6.8100   -3.4083    0.3788 C   0  0  0  0  0  0  0  0  0  0  0  0
   -7.7899   -3.8029    0.9762 O   0  0  0  0  0  0  0  0  0  0  0  0
    2.2647   -1.9849    1.2194 C   0  0  0  0  0  0  0  0  0  0  0  0
    1.8456   -1.8427    2.3576 O   0  0  0  0  0  0  0  0  0  0  0  0
    2.6304   -0.7903    0.3574 C   0  0  0  0  0  0  0  0  0  0  0  0
    2.2509    0.3336    0.6369 O   0  0  0  0  0  0  0  0  0  0  0  0
    3.4267   -1.0291   -0.9075 C   0  0  0  0  0  0  0  0  0  0  0  0
    4.2591   -0.2480   -1.3269 O   0  0  0  0  0  0  0  0  0  0  0  0
  1  2  1  0  0  0  0
  2  3  2  0  0  0  0
  3  4  1  0  0  0  0
  3 52  1  0  0  0  0
  4  5  1  0  0  0  0
  5  6  1  1  0  0  0
  5 48  1  0  0  0  0
  6  7  1  0  0  0  0
  7  8  2  0  0  0  0
  7 12  1  0  0  0  0
  8  9  1  0  0  0  0
  8 26  1  0  0  0  0
  9 10  1  0  0  0  0
 10 11  2  0  0  0  0
 10 21  1  0  0  0  0
 11 12  1  0  0  0  0
 11 13  1  0  0  0  0
 13 14  1  0  0  0  0
 13 19  1  0  0  0  0
 14 15  1  0  0  0  0
 15 16  2  0  0  0  0
 15 17  1  0  0  0  0
 17 18  1  0  0  0  0
 18 19  1  0  0  0  0
 18 25  1  0  0  0  0
 19 20  2  0  0  0  0
 20 21  1  0  0  0  0
 20 22  1  0  0  0  0
 22 23  1  0  0  0  0
 22 24  1  0  0  0  0
 23 24  1  0  0  0  0
 26 27  2  0  0  0  0
 26 31  1  0  0  0  0
 27 28  1  0  0  0  0
 28 29  2  0  0  0  0
 29 30  1  0  0  0  0
 30 31  2  0  0  0  0
 30 41  1  0  0  0  0
 31 32  1  0  0  0  0
 32 33  2  0  0  0  0
 33 34  1  0  0  0  0
 33 40  1  0  0  0  0
 34 35  2  0  0  0  0
 34 36  1  0  0  0  0
 36 37  2  0  0  0  0
 38 36  1  6  0  0  0
 38 39  1  0  0  0  0
 38 43  1  0  0  0  0
 39 40  1  0  0  0  0
 40 41  2  0  0  0  0
 41 42  1  0  0  0  0
 43 44  1  1  0  0  0
 43 45  1  0  0  0  0
 43 46  1  0  0  0  0
 45 46  1  0  0  0  0
 46 47  2  0  0  0  0
 48 49  2  0  0  0  0
 48 50  1  0  0  0  0
 50 51  2  0  0  0  0
 50 52  1  0  0  0  0
 52 53  2  0  0  0  0
M  CHG  1  21   1
M  END
$$$$