
 OpenBabel09262021493D

 53 61  0  0  1  0  0  0  0  0999 V2000
    0.1903   -2.8474    8.9731 O   0  0  0  0  0  0  0  0  0  0  0  0
   -0.7241   -2.0639    8.3163 C   0  0  0  0  0  0  0  0  0  0  0  0
   -0.7512   -1.9863    6.9805 C   0  0  0  0  0  0  0  0  0  0  0  0
    0.1918   -2.6744    6.2576 O   0  0  0  0  0  0  0  0  0  0  0  0
    0.1801   -2.6780    4.8411 C   0  0  2  0  0  0  0  0  0  0  0  0
    1.5203   -2.9457    4.3746 O   0  0  0  0  0  0  0  0  0  0  0  0
    2.0569   -4.1705    4.7767 C   0  0  0  0  0  0  0  0  0  0  0  0
    3.3802   -4.3493    5.0060 C   0  0  0  0  0  0  0  0  0  0  0  0
    3.9274   -5.5907    5.3616 O   0  0  0  0  0  0  0  0  0  0  0  0
    3.1152   -6.7215    5.3704 C   0  0  0  0  0  0  0  0  0  0  0  0
    1.8003   -6.6330    5.1272 C   0  0  0  0  0  0  0  0  0  0  0  0
    1.1145   -5.3481    4.8541 C   0  0  0  0  0  0  0  0  0  0  0  0
    0.9881   -7.8781    5.1063 C   0  0  0  0  0  0  0  0  0  0  0  0
   -0.2816   -7.8311    4.8678 N   0  0  0  0  0  0  0  0  0  0  0  0
   -1.0036   -9.0072    4.8321 C   0  0  0  0  0  0  0  0  0  0  0  0
   -2.2095   -8.9339    4.6337 O   0  0  0  0  0  0  0  0  0  0  0  0
   -0.4343  -10.2547    4.9995 N   0  0  0  0  0  0  0  0  0  0  0  0
    0.8275  -10.3285    5.2497 C   0  0  0  0  0  0  0  0  0  0  0  0
    1.6933   -9.1523    5.3458 C   0  0  0  0  0  0  0  0  0  0  0  0
    3.0181   -9.1484    5.5976 C   0  0  0  0  0  0  0  0  0  0  0  0
    3.7059   -7.9390    5.6174 N   0  0  0  0  0  0  0  0  0  0  0  0
    3.8181  -10.3701    5.8445 C   0  0  0  0  0  0  0  0  0  0  0  0
    4.9636  -10.3727    6.7122 O   0  0  0  0  0  0  0  0  0  0  0  0
    3.7612  -11.0657    7.1000 O   0  0  0  0  0  0  0  0  0  0  0  0
    4.4042   -3.2929    4.8335 C   0  0  0  0  0  0  0  0  0  0  0  0
    4.9331   -3.2574    3.5918 N   0  0  0  0  0  0  0  0  0  0  0  0
    5.8852   -2.3476    3.3839 C   0  0  0  0  0  0  0  0  0  0  0  0
    6.3611   -1.4851    4.2902 N   0  0  0  0  0  0  0  0  0  0  0  0
    5.8465   -1.5202    5.5243 C   0  0  0  0  0  0  0  0  0  0  0  0
    4.8322   -2.4388    5.8687 C   0  0  0  0  0  0  0  0  0  0  0  0
    4.3281   -2.4529    7.1879 C   0  0  0  0  0  0  0  0  0  0  0  0
    4.8037   -1.5422    8.1310 C   0  0  0  0  0  0  0  0  0  0  0  0
    4.2575   -1.5474    9.4960 C   0  0  0  0  0  0  0  0  0  0  0  0
    3.2861   -2.2059    9.8295 O   0  0  0  0  0  0  0  0  0  0  0  0
    4.9201   -0.6041   10.4626 C   0  0  0  0  0  0  0  0  0  0  0  0
    4.9979   -0.8661   11.6527 O   0  0  0  0  0  0  0  0  0  0  0  0
    5.4070    0.6518    9.8005 C   0  0  1  0  0  0  0  0  0  0  0  0
    6.2156    0.3728    8.6459 O   0  0  0  0  0  0  0  0  0  0  0  0
    5.7701   -0.5991    7.7851 C   0  0  0  0  0  0  0  0  0  0  0  0
    6.3147   -0.6087    6.4878 C   0  0  0  0  0  0  0  0  0  0  0  0
    7.4447    0.3318    6.1289 C   0  0  0  0  0  0  0  0  0  0  0  0
    8.6679   -0.2078    6.3978 F   0  0  0  0  0  0  0  0  0  0  0  0
    4.2717    1.5717    9.4542 C   0  0  1  0  0  0  0  0  0  0  0  0
    3.2699    1.0895    8.5312 O   0  0  0  0  0  0  0  0  0  0  0  0
    3.7291    2.3347   10.5381 O   0  0  0  0  0  0  0  0  0  0  0  0
    4.4059    3.0091    9.6098 C   0  0  0  0  0  0  0  0  0  0  0  0
    5.3787    3.7108    9.7221 O   0  0  0  0  0  0  0  0  0  0  0  0
   -0.3589   -1.4122    4.1936 C   0  0  0  0  0  0  0  0  0  0  0  0
    0.0832   -0.8507    3.2030 O   0  0  0  0  0  0  0  0  0  0  0  0
   -1.6044   -0.9102    4.8694 C   0  0  0  0  0  0  0  0  0  0  0  0
   -2.4898   -0.3830    4.2139 O   0  0  0  0  0  0  0  0  0  0  0  0
   -1.7529   -1.0828    6.3604 C   0  0  0  0  0  0  0  0  0  0  0  0
   -2.6131   -0.4856    6.9884 O   0  0  0  0  0  0  0  0  0  0  0  0
  1  2  1  0  0  0  0
  2  3  2  0  0  0  0
  3  4  1  0  0  0  0
  3 52  1  0  0  0  0
  4  5  1  0  0  0  0
  5  6  1  6  0  0  0
  5 48  1  0  0  0  0
  6  7  1  0  0  0  0
  7  8  2  0  0  0  0
  7 12  1  0  0  0  0
  8  9  1  0  0  0  0
  8 25  1  0  0  0  0
  9 10  1  0  0  0  0
 10 11  2  0  0  0  0
 10 21  1  0  0  0  0
 11 12  1  0  0  0  0
 11 13  1  0  0  0  0
 13 14  2  0  0  0  0
 13 19  1  0  0  0  0
 14 15  1  0  0  0  0
 15 16  2  0  0  0  0
 15 17  1  0  0  0  0
 17 18  2  0  0  0  0
 18 19  1  0  0  0  0
 19 20  2  0  0  0  0
 20 21  1  0  0  0  0
 20 22  1  0  0  0  0
 22 23  1  0  0  0  0
 22 24  1  0  0  0  0
 23 24  1  0  0  0  0
 25 26  2  0  0  0  0
 25 30  1  0  0  0  0
 26 27  1  0  0  0  0
 27 28  2  0  0  0  0
 28 29  1  0  0  0  0
 29 30  2  0  0  0  0
 29 40  1  0  0  0  0
 30 31  1  0  0  0  0
 31 32  2  0  0  0  0
 32 33  1  0  0  0  0
 32 39  1  0  0  0  0
 33 34  2  0  0  0  0
 33 35  1  0  0  0  0
 35 36  2  0  0  0  0
 37 35  1  6  0  0  0
 37 38  1  0  0  0  0
 37 43  1  0  0  0  0
 38 39  1  0  0  0  0
 39 40  2  0  0  0  0
 40 41  1  0  0  0  0
 41 42  1  0  0  0  0
 43 44  1  6  0  0  0
 43 45  1  0  0  0  0
 43 46  1  0  0  0  0
 45 46  1  0  0  0  0
 46 47  2  0  0  0  0
 48 49  2  0  0  0  0
 48 50  1  0  0  0  0
 50 51  2  0  0  0  0
 50 52  1  0  0  0  0
 52 53  2  0  0  0  0
M  END
$$$$