
 OpenBabel10202009073D

 52 60  0  0  1  0  0  0  0  0999 V2000
    2.9426    7.8464   -5.2361 O   0  0  0  0  0  0  0  0  0  0  0  0
    2.6445    6.6508   -5.8393 C   0  0  0  0  0  0  0  0  0  0  0  0
    2.7203    5.4747   -5.2059 C   0  0  0  0  0  0  0  0  0  0  0  0
    3.1318    5.3893   -3.8871 O   0  0  0  0  0  0  0  0  0  0  0  0
    2.2971    4.5150   -3.1205 C   0  0  2  0  0  0  0  0  0  0  0  0
    2.6007    4.6170   -1.7185 O   0  0  0  0  0  0  0  0  0  0  0  0
    2.4835    5.9028   -1.2039 C   0  0  0  0  0  0  0  0  0  0  0  0
    3.2258    6.3607   -0.1770 C   0  0  0  0  0  0  0  0  0  0  0  0
    3.1534    7.6627    0.3016 O   0  0  0  0  0  0  0  0  0  0  0  0
    2.5071    8.6139   -0.4653 C   0  0  0  0  0  0  0  0  0  0  0  0
    1.6962    8.2837   -1.4826 C   0  0  0  0  0  0  0  0  0  0  0  0
    1.4483    6.8544   -1.7129 C   0  0  0  0  0  0  0  0  0  0  0  0
    0.4289    6.4489   -2.2593 O   0  0  0  0  0  0  0  0  0  0  0  0
    1.1000    9.3776   -2.2964 C   0  0  0  0  0  0  0  0  0  0  0  0
    0.3956    9.1419   -3.3537 N   0  0  0  0  0  0  0  0  0  0  0  0
   -0.0879   10.1920   -4.1026 C   0  0  0  0  0  0  0  0  0  0  0  0
   -0.6042    9.9428   -5.1842 O   0  0  0  0  0  0  0  0  0  0  0  0
    0.0147   11.5123   -3.7109 N   0  0  0  0  0  0  0  0  0  0  0  0
    0.7208   11.7887   -2.6705 C   0  0  0  0  0  0  0  0  0  0  0  0
    1.3835   10.7661   -1.8623 C   0  0  0  0  0  0  0  0  0  0  0  0
    2.1913   10.9993   -0.8093 C   0  0  0  0  0  0  0  0  0  0  0  0
    2.7410    9.9242   -0.1294 N   0  0  0  0  0  0  0  0  0  0  0  0
    2.5662   12.3434   -0.3160 C   0  0  0  0  0  0  0  0  0  0  0  0
    3.8407   12.5958    0.3006 O   0  0  0  0  0  0  0  0  0  0  0  0
    3.5428   13.1457   -0.9972 O   0  0  0  0  0  0  0  0  0  0  0  0
    4.1574    5.5269    0.5980 C   0  0  0  0  0  0  0  0  0  0  0  0
    3.5844    4.9339    1.6669 N   0  0  0  0  0  0  0  0  0  0  0  0
    4.4002    4.2335    2.4586 C   0  0  0  0  0  0  0  0  0  0  0  0
    5.7195    4.0877    2.2923 N   0  0  0  0  0  0  0  0  0  0  0  0
    6.2711    4.6879    1.2352 C   0  0  0  0  0  0  0  0  0  0  0  0
    5.5314    5.4529    0.3220 C   0  0  0  0  0  0  0  0  0  0  0  0
    6.1993    6.0863   -0.7550 C   0  0  0  0  0  0  0  0  0  0  0  0
    7.5819    5.9436   -0.9099 C   0  0  0  0  0  0  0  0  0  0  0  0
    8.3075    5.1853   -0.0119 C   0  0  0  0  0  0  0  0  0  0  0  0
    7.6414    4.5624    1.0464 C   0  0  0  0  0  0  0  0  0  0  0  0
    9.6483    4.9875   -0.0488 O   0  0  0  0  0  0  0  0  0  0  0  0
   10.4298    5.6252   -1.0535 C   0  0  2  0  0  0  0  0  0  0  0  0
    9.7217    6.2781   -2.2280 C   0  0  0  0  0  0  0  0  0  0  0  0
   10.2724    6.5733   -3.2838 O   0  0  0  0  0  0  0  0  0  0  0  0
    8.2655    6.5996   -2.0212 C   0  0  0  0  0  0  0  0  0  0  0  0
    7.6800    7.3705   -2.7657 O   0  0  0  0  0  0  0  0  0  0  0  0
   11.4671    4.6467   -1.5705 C   0  0  1  0  0  0  0  0  0  0  0  0
   12.4129    5.1256   -2.5529 O   0  0  0  0  0  0  0  0  0  0  0  0
   12.0197    3.7453   -0.5956 O   0  0  0  0  0  0  0  0  0  0  0  0
   11.2318    3.2161   -1.5410 C   0  0  0  0  0  0  0  0  0  0  0  0
   10.1987    2.5711   -1.4732 O   0  0  0  0  0  0  0  0  0  0  0  0
    2.4735    3.0841   -3.6037 C   0  0  0  0  0  0  0  0  0  0  0  0
    2.5361    2.0889   -2.8969 O   0  0  0  0  0  0  0  0  0  0  0  0
    2.4799    2.9763   -5.1142 C   0  0  0  0  0  0  0  0  0  0  0  0
    2.5936    1.8883   -5.6575 O   0  0  0  0  0  0  0  0  0  0  0  0
    2.3556    4.2369   -5.9492 C   0  0  0  0  0  0  0  0  0  0  0  0
    1.9707    4.2116   -7.1057 O   0  0  0  0  0  0  0  0  0  0  0  0
  1  2  1  0  0  0  0
  2  3  2  0  0  0  0
  3  4  1  0  0  0  0
  3 51  1  0  0  0  0
  4  5  1  0  0  0  0
  5  6  1  1  0  0  0
  5 47  1  0  0  0  0
  6  7  1  0  0  0  0
  7  8  2  0  0  0  0
  7 12  1  0  0  0  0
  8  9  1  0  0  0  0
  8 26  1  0  0  0  0
  9 10  1  0  0  0  0
 10 11  2  0  0  0  0
 10 22  1  0  0  0  0
 11 12  1  0  0  0  0
 11 14  1  0  0  0  0
 12 13  2  0  0  0  0
 14 15  2  0  0  0  0
 14 20  1  0  0  0  0
 15 16  1  0  0  0  0
 16 17  2  0  0  0  0
 16 18  1  0  0  0  0
 18 19  2  0  0  0  0
 19 20  1  0  0  0  0
 20 21  2  0  0  0  0
 21 22  1  0  0  0  0
 21 23  1  0  0  0  0
 23 24  1  0  0  0  0
 23 25  1  0  0  0  0
 24 25  1  0  0  0  0
 26 27  2  0  0  0  0
 26 31  1  0  0  0  0
 27 28  1  0  0  0  0
 28 29  2  0  0  0  0
 29 30  1  0  0  0  0
 30 31  2  0  0  0  0
 30 35  1  0  0  0  0
 31 32  1  0  0  0  0
 32 33  2  0  0  0  0
 33 34  1  0  0  0  0
 33 40  1  0  0  0  0
 34 35  2  0  0  0  0
 34 36  1  0  0  0  0
 37 36  1  1  0  0  0
 37 38  1  0  0  0  0
 37 42  1  0  0  0  0
 38 39  2  0  0  0  0
 38 40  1  0  0  0  0
 40 41  2  0  0  0  0
 42 43  1  6  0  0  0
 42 44  1  0  0  0  0
 42 45  1  0  0  0  0
 44 45  1  0  0  0  0
 45 46  2  0  0  0  0
 47 48  2  0  0  0  0
 47 49  1  0  0  0  0
 49 50  2  0  0  0  0
 49 51  1  0  0  0  0
 51 52  2  0  0  0  0
M  END
$$$$