
 OpenBabel11242001473D

 53 62  0  0  1  0  0  0  0  0999 V2000
   -1.1325  -11.3836   -5.4701 O   0  0  0  0  0  0  0  0  0  0  0  0
   -2.4926  -11.5393   -5.3719 C   0  0  0  0  0  0  0  0  0  0  0  0
   -3.3432  -10.5074   -5.4239 C   0  0  0  0  0  0  0  0  0  0  0  0
   -2.8788   -9.2108   -5.5775 O   0  0  0  0  0  0  0  0  0  0  0  0
   -3.7049   -8.4373   -6.4540 C   0  0  2  0  0  0  0  0  0  0  0  0
   -3.0904   -7.1804   -6.8084 O   0  0  0  0  0  0  0  0  0  0  0  0
   -1.7688   -7.2478   -7.2384 C   0  0  0  0  0  0  0  0  0  0  0  0
   -0.8889   -6.2445   -7.0058 C   0  0  0  0  0  0  0  0  0  0  0  0
    0.4090   -6.2705   -7.5315 O   0  0  0  0  0  0  0  0  0  0  0  0
    0.8266   -7.3297   -8.3240 C   0  0  0  0  0  0  0  0  0  0  0  0
    0.0273   -8.3720   -8.5848 C   0  0  0  0  0  0  0  0  0  0  0  0
   -1.3660   -8.4508   -8.0691 C   0  0  0  0  0  0  0  0  0  0  0  0
    0.5523   -9.5075   -9.3546 C   0  0  0  0  0  0  0  0  0  0  0  0
   -0.3133  -10.5088   -9.6079 N   0  0  0  0  0  0  0  0  0  0  0  0
    0.1902  -11.5797  -10.2360 C   0  0  0  0  0  0  0  0  0  0  0  0
   -0.6492  -12.5957  -10.4771 F   0  0  0  0  0  0  0  0  0  0  0  0
    1.4655  -11.7259  -10.6196 N   0  0  0  0  0  0  0  0  0  0  0  0
    2.2896  -10.6974  -10.3504 C   0  0  0  0  0  0  0  0  0  0  0  0
    1.8855   -9.5354   -9.7244 C   0  0  0  0  0  0  0  0  0  0  0  0
    2.8221   -8.4104   -9.3730 C   0  0  3  0  0  0  0  0  0  0  0  0
    2.0988   -7.2529   -8.8323 N   0  0  0  0  0  0  0  0  0  0  0  0
    3.5996   -7.9639  -10.5753 C   0  0  0  0  0  0  0  0  0  0  0  0
    4.6747   -7.0620  -10.2972 O   0  0  0  0  0  0  0  0  0  0  0  0
    4.9436   -8.4393  -10.6490 O   0  0  0  0  0  0  0  0  0  0  0  0
   -1.1932   -4.9549   -6.3164 C   0  0  0  0  0  0  0  0  0  0  0  0
   -0.6625   -3.8104   -6.9096 C   0  0  0  0  0  0  0  0  0  0  0  0
   -0.9270   -2.5939   -6.4297 N   0  3  0  0  0  0  0  0  0  0  0  0
   -0.3695   -1.5207   -7.0233 F   0  0  0  0  0  0  0  0  0  0  0  0
   -1.7384   -2.3934   -5.4110 N   0  0  0  0  0  0  0  0  0  0  0  0
   -2.2803   -3.4407   -4.7847 C   0  0  0  0  0  0  0  0  0  0  0  0
   -1.9880   -4.7672   -5.1570 C   0  0  0  0  0  0  0  0  0  0  0  0
   -2.5180   -5.8040   -4.3508 C   0  0  0  0  0  0  0  0  0  0  0  0
   -3.4522   -5.5457   -3.3383 C   0  0  0  0  0  0  0  0  0  0  0  0
   -3.8026   -4.2428   -3.0399 C   0  0  0  0  0  0  0  0  0  0  0  0
   -3.1771   -3.2104   -3.7375 C   0  0  0  0  0  0  0  0  0  0  0  0
   -3.4709   -1.9416   -3.4133 F   0  0  0  0  0  0  0  0  0  0  0  0
   -4.7180   -3.9096   -2.0756 O   0  0  0  0  0  0  0  0  0  0  0  0
   -5.6604   -4.9617   -1.7459 C   0  0  1  0  0  0  0  0  0  0  0  0
   -5.0798   -6.2958   -1.5309 C   0  0  0  0  0  0  0  0  0  0  0  0
   -5.3387   -7.0402   -0.6036 O   0  0  0  0  0  0  0  0  0  0  0  0
   -4.1065   -6.6579   -2.6281 C   0  0  0  0  0  0  0  0  0  0  0  0
   -3.9036   -7.8208   -2.9539 O   0  0  0  0  0  0  0  0  0  0  0  0
   -6.7056   -4.5973   -0.8805 O   0  0  0  0  0  0  0  0  0  0  0  0
   -7.0677   -4.8957   -2.2637 C   0  0  1  0  0  0  0  0  0  0  0  0
   -7.1040   -3.7746   -3.2324 O   0  0  0  0  0  0  0  0  0  0  0  0
   -8.1982   -4.0582   -2.5625 C   0  0  0  0  0  0  0  0  0  0  0  0
   -9.3340   -4.2754   -2.9232 O   0  0  0  0  0  0  0  0  0  0  0  0
   -5.0110   -8.1946   -5.7142 C   0  0  0  0  0  0  0  0  0  0  0  0
   -5.5178   -7.1025   -5.4875 O   0  0  0  0  0  0  0  0  0  0  0  0
   -5.6343   -9.4900   -5.2362 C   0  0  0  0  0  0  0  0  0  0  0  0
   -6.7807   -9.5029   -4.8205 O   0  0  0  0  0  0  0  0  0  0  0  0
   -4.8087  -10.7654   -5.3276 C   0  0  0  0  0  0  0  0  0  0  0  0
   -5.3194  -11.8682   -5.4077 O   0  0  0  0  0  0  0  0  0  0  0  0
  1  2  1  0  0  0  0
  2  3  2  0  0  0  0
  3  4  1  0  0  0  0
  3 52  1  0  0  0  0
  4  5  1  0  0  0  0
  5  6  1  1  0  0  0
  5 48  1  0  0  0  0
  6  7  1  0  0  0  0
  7  8  2  0  0  0  0
  7 12  1  0  0  0  0
  8  9  1  0  0  0  0
  8 25  1  0  0  0  0
  9 10  1  0  0  0  0
 10 11  2  0  0  0  0
 10 21  1  0  0  0  0
 11 12  1  0  0  0  0
 11 13  1  0  0  0  0
 13 14  2  0  0  0  0
 13 19  1  0  0  0  0
 14 15  1  0  0  0  0
 15 16  1  0  0  0  0
 15 17  2  0  0  0  0
 17 18  1  0  0  0  0
 18 19  2  0  0  0  0
 19 20  1  0  0  0  0
 20 21  1  0  0  0  0
 20 22  1  0  0  0  0
 22 23  1  0  0  0  0
 22 24  1  0  0  0  0
 23 24  1  0  0  0  0
 25 26  2  0  0  0  0
 25 31  1  0  0  0  0
 26 27  1  0  0  0  0
 27 28  1  0  0  0  0
 27 29  2  0  0  0  0
 29 30  1  0  0  0  0
 30 31  2  0  0  0  0
 30 35  1  0  0  0  0
 31 32  1  0  0  0  0
 32 33  2  0  0  0  0
 33 34  1  0  0  0  0
 33 41  1  0  0  0  0
 34 35  2  0  0  0  0
 34 37  1  0  0  0  0
 35 36  1  0  0  0  0
 38 37  1  6  0  0  0
 38 39  1  0  0  0  0
 38 43  1  0  0  0  0
 38 44  1  0  0  0  0
 39 40  2  0  0  0  0
 39 41  1  0  0  0  0
 41 42  2  0  0  0  0
 44 43  1  1  0  0  0
 44 45  1  0  0  0  0
 44 46  1  0  0  0  0
 45 46  1  0  0  0  0
 46 47  2  0  0  0  0
 48 49  2  0  0  0  0
 48 50  1  0  0  0  0
 50 51  2  0  0  0  0
 50 52  1  0  0  0  0
 52 53  2  0  0  0  0
M  CHG  1  27   1
M  END
$$$$