
 OpenBabel11172006003D

 53 62  0  0  1  0  0  0  0  0999 V2000
    2.6936    5.7471   -0.4971 O   0  0  0  0  0  0  0  0  0  0  0  0
    3.3678    4.6842    0.0522 C   0  0  0  0  0  0  0  0  0  0  0  0
    3.3846    3.4696   -0.5097 C   0  0  0  0  0  0  0  0  0  0  0  0
    2.6790    3.2187   -1.6694 O   0  0  0  0  0  0  0  0  0  0  0  0
    3.3565    2.3626   -2.5958 C   0  0  2  0  0  0  0  0  0  0  0  0
    2.6999    2.3214   -3.8692 O   0  0  0  0  0  0  0  0  0  0  0  0
    2.6617    3.5069   -4.6014 C   0  0  0  0  0  0  0  0  0  0  0  0
    2.6347    3.4967   -5.9517 C   0  0  0  0  0  0  0  0  0  0  0  0
    2.5455    4.6490   -6.7275 O   0  0  0  0  0  0  0  0  0  0  0  0
    2.4529    5.8816   -6.0996 C   0  0  0  0  0  0  0  0  0  0  0  0
    2.4586    6.0037   -4.7642 C   0  0  0  0  0  0  0  0  0  0  0  0
    2.5603    4.8199   -3.8653 C   0  0  0  0  0  0  0  0  0  0  0  0
    2.3449    7.3541   -4.1109 C   0  0  3  0  0  0  0  0  0  0  0  0
    3.4895    7.5299   -3.2663 O   0  0  0  0  0  0  0  0  0  0  0  0
    3.6573    8.6899   -2.5760 C   0  0  0  0  0  0  0  0  0  0  0  0
    4.3655    8.7376   -1.5781 O   0  0  0  0  0  0  0  0  0  0  0  0
    3.0042    9.7895   -3.0508 O   0  0  0  0  0  0  0  0  0  0  0  0
    2.2840    9.7512   -4.2971 C   0  0  3  0  0  0  0  0  0  0  0  0
    2.2912    8.5074   -5.0683 C   0  0  0  0  0  0  0  0  0  0  0  0
    2.3113    8.3035   -6.4075 C   0  0  0  0  0  0  0  0  0  0  0  0
    2.3631    6.9994   -6.8869 N   0  0  0  0  0  0  0  0  0  0  0  0
    2.2965    9.3745   -7.4346 C   0  0  0  0  0  0  0  0  0  0  0  0
    2.2852    9.0724   -8.8438 O   0  0  0  0  0  0  0  0  0  0  0  0
    1.1235    9.6493   -8.2172 O   0  0  0  0  0  0  0  0  0  0  0  0
    2.1030   11.0403   -4.9043 O   0  0  0  0  0  0  0  0  0  0  0  0
    0.9633   10.5048   -4.2319 C   0  0  0  0  0  0  0  0  0  0  0  0
    2.7161    2.2578   -6.7380 C   0  0  0  0  0  0  0  0  0  0  0  0
    3.9705    1.7982   -7.1060 C   0  0  0  0  0  0  0  0  0  0  0  0
    4.1553    0.6614   -7.7983 N   0  0  0  0  0  0  0  0  0  0  0  0
    3.0706   -0.0886   -8.1476 N   0  0  0  0  0  0  0  0  0  0  0  0
    1.8282    0.2969   -7.8229 C   0  0  0  0  0  0  0  0  0  0  0  0
    1.5906    1.4949   -7.1189 C   0  0  0  0  0  0  0  0  0  0  0  0
    0.2530    1.8631   -6.8393 C   0  0  0  0  0  0  0  0  0  0  0  0
   -0.8093    1.0393   -7.2243 C   0  0  0  0  0  0  0  0  0  0  0  0
   -0.5618   -0.1656   -7.8675 C   0  0  0  0  0  0  0  0  0  0  0  0
    0.7527   -0.5097   -8.1824 C   0  0  0  0  0  0  0  0  0  0  0  0
   -1.5237   -1.0659   -8.2348 O   0  0  0  0  0  0  0  0  0  0  0  0
   -2.8012   -0.9275   -7.6003 C   0  0  2  0  0  0  0  0  0  0  0  0
   -3.2702    0.4984   -7.4416 C   0  0  0  0  0  0  0  0  0  0  0  0
   -4.4152    0.8780   -7.6424 O   0  0  0  0  0  0  0  0  0  0  0  0
   -2.1962    1.4519   -6.9727 C   0  0  0  0  0  0  0  0  0  0  0  0
   -2.4767    2.5147   -6.4424 O   0  0  0  0  0  0  0  0  0  0  0  0
   -2.8258   -1.6485   -6.2896 C   0  0  1  0  0  0  0  0  0  0  0  0
   -1.9065   -1.1808   -5.2734 O   0  0  0  0  0  0  0  0  0  0  0  0
   -4.1370   -1.9845   -5.8278 O   0  0  0  0  0  0  0  0  0  0  0  0
   -3.3175   -3.0155   -6.1157 C   0  0  0  0  0  0  0  0  0  0  0  0
   -2.9150   -3.9041   -5.4042 O   0  0  0  0  0  0  0  0  0  0  0  0
    3.3715    0.9973   -1.9293 C   0  0  0  0  0  0  0  0  0  0  0  0
    2.8929   -0.0386   -2.3641 O   0  0  0  0  0  0  0  0  0  0  0  0
    4.0492    1.0429   -0.5774 C   0  0  0  0  0  0  0  0  0  0  0  0
    4.5653    0.0394   -0.1121 O   0  0  0  0  0  0  0  0  0  0  0  0
    4.1244    2.3677    0.1646 C   0  0  0  0  0  0  0  0  0  0  0  0
    4.7563    2.5007    1.1986 O   0  0  0  0  0  0  0  0  0  0  0  0
  1  2  1  0  0  0  0
  2  3  2  0  0  0  0
  3  4  1  0  0  0  0
  3 52  1  0  0  0  0
  4  5  1  0  0  0  0
  5  6  1  6  0  0  0
  5 48  1  0  0  0  0
  6  7  1  0  0  0  0
  7  8  2  0  0  0  0
  7 12  1  0  0  0  0
  8  9  1  0  0  0  0
  8 27  1  0  0  0  0
  9 10  1  0  0  0  0
 10 11  2  0  0  0  0
 10 21  1  0  0  0  0
 11 12  1  0  0  0  0
 11 13  1  0  0  0  0
 13 14  1  0  0  0  0
 13 19  1  0  0  0  0
 14 15  1  0  0  0  0
 15 16  2  0  0  0  0
 15 17  1  0  0  0  0
 17 18  1  0  0  0  0
 18 19  1  0  0  0  0
 18 25  1  0  0  0  0
 18 26  1  0  0  0  0
 19 20  2  0  0  0  0
 20 21  1  0  0  0  0
 20 22  1  0  0  0  0
 22 23  1  0  0  0  0
 22 24  1  0  0  0  0
 23 24  1  0  0  0  0
 25 26  1  0  0  0  0
 27 28  2  0  0  0  0
 27 32  1  0  0  0  0
 28 29  1  0  0  0  0
 29 30  2  0  0  0  0
 30 31  1  0  0  0  0
 31 32  2  0  0  0  0
 31 36  1  0  0  0  0
 32 33  1  0  0  0  0
 33 34  2  0  0  0  0
 34 35  1  0  0  0  0
 34 41  1  0  0  0  0
 35 36  2  0  0  0  0
 35 37  1  0  0  0  0
 38 37  1  1  0  0  0
 38 39  1  0  0  0  0
 38 43  1  0  0  0  0
 39 40  2  0  0  0  0
 39 41  1  0  0  0  0
 41 42  2  0  0  0  0
 43 44  1  1  0  0  0
 43 45  1  0  0  0  0
 43 46  1  0  0  0  0
 45 46  1  0  0  0  0
 46 47  2  0  0  0  0
 48 49  2  0  0  0  0
 48 50  1  0  0  0  0
 50 51  2  0  0  0  0
 50 52  1  0  0  0  0
 52 53  2  0  0  0  0
M  END
$$$$