
 OpenBabel09222011053D

 49 56  0  0  1  0  0  0  0  0999 V2000
   -2.3607   -1.1573   -4.4142 O   0  0  0  0  0  0  0  0  0  0  0  0
   -1.7584   -1.1348   -3.1826 C   0  0  0  0  0  0  0  0  0  0  0  0
   -0.4335   -1.1770   -3.0075 C   0  0  0  0  0  0  0  0  0  0  0  0
    0.4028   -1.2836   -4.0950 O   0  0  0  0  0  0  0  0  0  0  0  0
    1.7567   -0.8715   -3.9810 C   0  0  2  0  0  0  0  0  0  0  0  0
    2.5504   -1.6086   -4.9280 O   0  0  0  0  0  0  0  0  0  0  0  0
    2.5178   -1.3902   -6.2996 C   0  0  0  0  0  0  0  0  0  0  0  0
    2.1877   -0.2712   -6.9935 C   0  0  0  0  0  0  0  0  0  0  0  0
    2.2793   -0.1737   -8.3853 O   0  0  0  0  0  0  0  0  0  0  0  0
    2.7250   -1.2402   -9.1371 C   0  0  0  0  0  0  0  0  0  0  0  0
    3.0201   -2.4567   -8.5650 C   0  0  0  0  0  0  0  0  0  0  0  0
    2.9491   -2.6214   -7.0759 C   0  0  0  0  0  0  0  0  0  0  0  0
    3.3640   -3.4955   -9.4400 C   0  0  0  0  0  0  0  0  0  0  0  0
    3.6188   -4.7793   -8.9416 N   0  0  0  0  0  0  0  0  0  0  0  0
    3.8653   -5.8776   -9.6984 C   0  0  0  0  0  0  0  0  0  0  0  0
    4.0389   -6.9783   -9.1861 O   0  0  0  0  0  0  0  0  0  0  0  0
    3.8840   -5.7136  -11.0383 N   0  0  0  0  0  0  0  0  0  0  0  0
    3.8059   -4.4441  -11.7144 C   0  0  0  0  0  0  0  0  0  0  0  0
    3.4474   -3.2892  -10.8237 C   0  0  0  0  0  0  0  0  0  0  0  0
    3.2137   -1.9982  -11.3193 C   0  0  0  0  0  0  0  0  0  0  0  0
    2.8231   -0.9993  -10.4686 N   0  0  0  0  0  0  0  0  0  0  0  0
    3.3491   -1.6146  -12.7850 C   0  0  0  0  0  0  0  0  0  0  0  0
    4.6391   -1.1352  -13.2088 O   0  0  0  0  0  0  0  0  0  0  0  0
    4.1505   -2.4023  -13.6807 O   0  0  0  0  0  0  0  0  0  0  0  0
    1.7029    1.0006   -6.4185 C   0  0  0  0  0  0  0  0  0  0  0  0
    0.3611    1.0111   -6.1772 N   0  0  0  0  0  0  0  0  0  0  0  0
   -0.1831    2.1495   -5.7033 C   0  0  0  0  0  0  0  0  0  0  0  0
    0.5468    3.2912   -5.4381 C   0  0  0  0  0  0  0  0  0  0  0  0
    1.9271    3.2751   -5.6488 C   0  0  0  0  0  0  0  0  0  0  0  0
    2.5533    2.1012   -6.1361 C   0  0  0  0  0  0  0  0  0  0  0  0
    3.9614    2.1272   -6.3092 C   0  0  0  0  0  0  0  0  0  0  0  0
    4.6998    3.2869   -6.0282 C   0  0  0  0  0  0  0  0  0  0  0  0
    4.0671    4.4272   -5.5371 C   0  0  0  0  0  0  0  0  0  0  0  0
    2.6844    4.4262   -5.3763 C   0  0  0  0  0  0  0  0  0  0  0  0
    4.7049    5.5934   -5.1946 O   0  0  0  0  0  0  0  0  0  0  0  0
    6.1182    5.4745   -4.9966 C   0  0  2  0  0  0  0  0  0  0  0  0
    6.7742    4.7136   -6.1133 C   0  0  0  0  0  0  0  0  0  0  0  0
    7.6563    5.1477   -6.8390 O   0  0  0  0  0  0  0  0  0  0  0  0
    6.1397    3.3592   -6.3351 C   0  0  0  0  0  0  0  0  0  0  0  0
    6.7672    2.4158   -6.7840 O   0  0  0  0  0  0  0  0  0  0  0  0
    6.4314    4.8406   -3.6503 C   0  0  0  0  0  0  0  0  0  0  0  0
    7.4146    4.1527   -3.4276 O   0  0  0  0  0  0  0  0  0  0  0  0
    5.4976    5.0905   -2.7000 O   0  0  0  0  0  0  0  0  0  0  0  0
    2.4268   -0.9346   -2.6041 C   0  0  0  0  0  0  0  0  0  0  0  0
    3.5514   -0.5222   -2.3594 O   0  0  0  0  0  0  0  0  0  0  0  0
    1.5367   -1.3951   -1.4819 C   0  0  0  0  0  0  0  0  0  0  0  0
    2.0133   -1.8701   -0.4703 O   0  0  0  0  0  0  0  0  0  0  0  0
    0.0433   -1.2361   -1.6034 C   0  0  0  0  0  0  0  0  0  0  0  0
   -0.6703   -1.1706   -0.6275 O   0  0  0  0  0  0  0  0  0  0  0  0
  1  2  1  0  0  0  0
  2  3  2  0  0  0  0
  3  4  1  0  0  0  0
  3 48  1  0  0  0  0
  4  5  1  0  0  0  0
  5  6  1  6  0  0  0
  5 44  1  0  0  0  0
  6  7  1  0  0  0  0
  7  8  2  0  0  0  0
  7 12  1  0  0  0  0
  8  9  1  0  0  0  0
  8 25  1  0  0  0  0
  9 10  1  0  0  0  0
 10 11  2  0  0  0  0
 10 21  1  0  0  0  0
 11 12  1  0  0  0  0
 11 13  1  0  0  0  0
 13 14  1  0  0  0  0
 13 19  2  0  0  0  0
 14 15  1  0  0  0  0
 15 16  2  0  0  0  0
 15 17  1  0  0  0  0
 17 18  1  0  0  0  0
 18 19  1  0  0  0  0
 19 20  1  0  0  0  0
 20 21  2  0  0  0  0
 20 22  1  0  0  0  0
 22 23  1  0  0  0  0
 22 24  1  0  0  0  0
 23 24  1  0  0  0  0
 25 26  2  0  0  0  0
 25 30  1  0  0  0  0
 26 27  1  0  0  0  0
 27 28  2  0  0  0  0
 28 29  1  0  0  0  0
 29 30  2  0  0  0  0
 29 34  1  0  0  0  0
 30 31  1  0  0  0  0
 31 32  2  0  0  0  0
 32 33  1  0  0  0  0
 32 39  1  0  0  0  0
 33 34  2  0  0  0  0
 33 35  1  0  0  0  0
 35 36  1  0  0  0  0
 36 37  1  0  0  0  0
 36 41  1  1  0  0  0
 37 38  2  0  0  0  0
 37 39  1  0  0  0  0
 39 40  2  0  0  0  0
 41 42  2  0  0  0  0
 41 43  1  0  0  0  0
 44 45  2  0  0  0  0
 44 46  1  0  0  0  0
 46 47  2  0  0  0  0
 46 48  1  0  0  0  0
 48 49  2  0  0  0  0
M  END
$$$$