
 OpenBabel11142001123D

 52 60  0  0  1  0  0  0  0  0999 V2000
    6.8413   -4.9747   -4.8699 O   0  0  0  0  0  0  0  0  0  0  0  0
    6.7495   -5.1311   -3.5112 C   0  0  0  0  0  0  0  0  0  0  0  0
    5.7787   -4.5707   -2.7793 C   0  0  0  0  0  0  0  0  0  0  0  0
    4.8321   -3.7484   -3.3599 O   0  0  0  0  0  0  0  0  0  0  0  0
    3.5136   -3.9252   -2.8490 C   0  0  2  0  0  0  0  0  0  0  0  0
    2.5651   -3.1000   -3.5388 O   0  0  0  0  0  0  0  0  0  0  0  0
    2.4371   -3.3021   -4.9069 C   0  0  0  0  0  0  0  0  0  0  0  0
    2.0995   -2.2864   -5.7295 C   0  0  0  0  0  0  0  0  0  0  0  0
    1.9196   -2.4406   -7.1014 O   0  0  0  0  0  0  0  0  0  0  0  0
    2.0257   -3.7030   -7.6628 C   0  0  0  0  0  0  0  0  0  0  0  0
    2.3219   -4.7795   -6.9204 C   0  0  0  0  0  0  0  0  0  0  0  0
    2.6038   -4.6990   -5.4592 C   0  0  0  0  0  0  0  0  0  0  0  0
    2.3720   -6.1044   -7.5985 C   0  0  0  0  0  0  0  0  0  0  0  0
    2.6163   -7.1805   -6.9137 N   0  0  0  0  0  0  0  0  0  0  0  0
    2.6364   -8.3592   -7.5992 C   0  0  0  0  0  0  0  0  0  0  0  0
    2.8504   -9.3958   -6.8771 N   0  0  0  0  0  0  0  0  0  0  0  0
    2.4626   -8.5565   -8.9342 N   0  0  0  0  0  0  0  0  0  0  0  0
    2.2216   -7.4975   -9.6110 C   0  0  0  0  0  0  0  0  0  0  0  0
    2.1304   -6.1438   -9.0707 C   0  0  0  0  0  0  0  0  0  0  0  0
    1.8663   -4.9916   -9.7238 C   0  0  0  0  0  0  0  0  0  0  0  0
    1.8147   -3.8005   -9.0120 N   0  0  0  0  0  0  0  0  0  0  0  0
    1.6160   -4.8743  -11.1812 C   0  0  0  0  0  0  0  0  0  0  0  0
    0.2982   -5.0088  -11.7354 O   0  0  0  0  0  0  0  0  0  0  0  0
    0.9531   -3.7265  -11.7465 O   0  0  0  0  0  0  0  0  0  0  0  0
    2.0464   -7.6318  -10.9285 O   0  0  0  0  0  0  0  0  0  0  0  0
    1.8886   -0.9025   -5.2706 C   0  0  0  0  0  0  0  0  0  0  0  0
    3.0022   -0.1385   -5.2893 N   0  0  0  0  0  0  0  0  0  0  0  0
    2.8350    1.1413   -4.9497 C   0  0  0  0  0  0  0  0  0  0  0  0
    1.6760    1.7257   -4.6186 N   0  0  0  0  0  0  0  0  0  0  0  0
    0.5841    0.9557   -4.6102 C   0  0  0  0  0  0  0  0  0  0  0  0
    0.6176   -0.4103   -4.9230 C   0  0  0  0  0  0  0  0  0  0  0  0
   -0.5850   -1.1614   -4.8765 C   0  0  0  0  0  0  0  0  0  0  0  0
   -1.7952   -0.5438   -4.5419 C   0  0  0  0  0  0  0  0  0  0  0  0
   -1.8308    0.8148   -4.2687 C   0  0  0  0  0  0  0  0  0  0  0  0
   -0.6374    1.5418   -4.2904 C   0  0  0  0  0  0  0  0  0  0  0  0
   -2.9562    1.5218   -3.9527 O   0  0  0  0  0  0  0  0  0  0  0  0
   -4.2143    0.9026   -4.2330 C   0  0  2  0  0  0  0  0  0  0  0  0
   -4.2816   -0.5961   -4.0520 C   0  0  0  0  0  0  0  0  0  0  0  0
   -5.2737   -1.1975   -3.6633 O   0  0  0  0  0  0  0  0  0  0  0  0
   -3.0259   -1.3358   -4.4464 C   0  0  0  0  0  0  0  0  0  0  0  0
   -3.0353   -2.5400   -4.6476 O   0  0  0  0  0  0  0  0  0  0  0  0
   -4.6938    1.2927   -5.5963 C   0  0  1  0  0  0  0  0  0  0  0  0
   -3.8521    0.9092   -6.7110 O   0  0  0  0  0  0  0  0  0  0  0  0
   -6.0995    1.1365   -5.7989 O   0  0  0  0  0  0  0  0  0  0  0  0
   -5.6211    2.3930   -5.8478 C   0  0  0  0  0  0  0  0  0  0  0  0
   -5.6537    3.1980   -6.7535 O   0  0  0  0  0  0  0  0  0  0  0  0
    3.4771   -3.5829   -1.3693 C   0  0  0  0  0  0  0  0  0  0  0  0
    2.6639   -2.8661   -0.8048 O   0  0  0  0  0  0  0  0  0  0  0  0
    4.5507   -4.2997   -0.5907 C   0  0  0  0  0  0  0  0  0  0  0  0
    4.4072   -4.4992    0.6061 O   0  0  0  0  0  0  0  0  0  0  0  0
    5.7673   -4.8381   -1.3143 C   0  0  0  0  0  0  0  0  0  0  0  0
    6.6339   -5.4687   -0.7304 O   0  0  0  0  0  0  0  0  0  0  0  0
  1  2  1  0  0  0  0
  2  3  2  0  0  0  0
  3  4  1  0  0  0  0
  3 51  1  0  0  0  0
  4  5  1  0  0  0  0
  5  6  1  6  0  0  0
  5 47  1  0  0  0  0
  6  7  1  0  0  0  0
  7  8  2  0  0  0  0
  7 12  1  0  0  0  0
  8  9  1  0  0  0  0
  8 26  1  0  0  0  0
  9 10  1  0  0  0  0
 10 11  2  0  0  0  0
 10 21  1  0  0  0  0
 11 12  1  0  0  0  0
 11 13  1  0  0  0  0
 13 14  2  0  0  0  0
 13 19  1  0  0  0  0
 14 15  1  0  0  0  0
 15 16  2  0  0  0  0
 15 17  1  0  0  0  0
 17 18  2  0  0  0  0
 18 19  1  0  0  0  0
 18 25  1  0  0  0  0
 19 20  2  0  0  0  0
 20 21  1  0  0  0  0
 20 22  1  0  0  0  0
 22 23  1  0  0  0  0
 22 24  1  0  0  0  0
 23 24  1  0  0  0  0
 26 27  2  0  0  0  0
 26 31  1  0  0  0  0
 27 28  1  0  0  0  0
 28 29  2  0  0  0  0
 29 30  1  0  0  0  0
 30 31  2  0  0  0  0
 30 35  1  0  0  0  0
 31 32  1  0  0  0  0
 32 33  2  0  0  0  0
 33 34  1  0  0  0  0
 33 40  1  0  0  0  0
 34 35  2  0  0  0  0
 34 36  1  0  0  0  0
 37 36  1  6  0  0  0
 37 38  1  0  0  0  0
 37 42  1  0  0  0  0
 38 39  2  0  0  0  0
 38 40  1  0  0  0  0
 40 41  2  0  0  0  0
 42 43  1  6  0  0  0
 42 44  1  0  0  0  0
 42 45  1  0  0  0  0
 44 45  1  0  0  0  0
 45 46  2  0  0  0  0
 47 48  2  0  0  0  0
 47 49  1  0  0  0  0
 49 50  2  0  0  0  0
 49 51  1  0  0  0  0
 51 52  2  0  0  0  0
M  END
$$$$