
 OpenBabel11242002243D

 55 63  0  0  1  0  0  0  0  0999 V2000
   -0.6146    1.0140   -4.9876 O   0  0  0  0  0  0  0  0  0  0  0  0
   -0.2546    1.2295   -3.6791 C   0  0  0  0  0  0  0  0  0  0  0  0
    0.4436    0.3378   -2.9666 C   0  0  0  0  0  0  0  0  0  0  0  0
    0.7961   -0.8806   -3.5240 O   0  0  0  0  0  0  0  0  0  0  0  0
    2.1188   -1.2885   -3.1734 C   0  0  2  0  0  0  0  0  0  0  0  0
    2.5040   -2.4572   -3.9292 O   0  0  0  0  0  0  0  0  0  0  0  0
    2.4773   -2.3600   -5.3170 C   0  0  0  0  0  0  0  0  0  0  0  0
    2.3975   -3.4669   -6.0864 C   0  0  0  0  0  0  0  0  0  0  0  0
    2.4041   -3.4279   -7.4875 O   0  0  0  0  0  0  0  0  0  0  0  0
    2.6414   -2.2042   -8.1391 C   0  0  0  0  0  0  0  0  0  0  0  0
    2.7614   -1.0624   -7.4378 C   0  0  0  0  0  0  0  0  0  0  0  0
    2.5807   -1.0024   -5.9551 C   0  0  0  0  0  0  0  0  0  0  0  0
    3.0780    0.2568   -8.0820 C   0  0  3  0  0  0  0  0  0  0  0  0
    4.3404    0.6493   -7.5746 O   0  0  0  0  0  0  0  0  0  0  0  0
    4.9164    1.7750   -8.0713 C   0  0  0  0  0  0  0  0  0  0  0  0
    5.8334    2.3207   -7.4811 O   0  0  0  0  0  0  0  0  0  0  0  0
    4.4285    2.2233   -9.2507 O   0  0  0  0  0  0  0  0  0  0  0  0
    3.5791    1.4667  -10.1059 C   0  0  3  0  0  0  0  0  0  0  0  0
    3.2287    0.1352   -9.5438 C   0  0  0  0  0  0  0  0  0  0  0  0
    3.0688   -1.0320  -10.2054 C   0  0  0  0  0  0  0  0  0  0  0  0
    2.7578   -2.1994   -9.5149 O   0  3  0  0  0  0  0  0  0  0  0  0
    3.2422   -1.1717  -11.6686 C   0  0  0  0  0  0  0  0  0  0  0  0
    4.5203   -1.5091  -12.2206 O   0  0  0  0  0  0  0  0  0  0  0  0
    3.4468   -2.4697  -12.2525 O   0  0  0  0  0  0  0  0  0  0  0  0
    2.3407    2.1374  -10.2332 O   0  0  0  0  0  0  0  0  0  0  0  0
    2.2951   -4.8143   -5.4755 C   0  0  0  0  0  0  0  0  0  0  0  0
    3.4687   -5.5175   -5.2087 C   0  0  0  0  0  0  0  0  0  0  0  0
    3.4287   -6.6962   -4.5749 N   0  3  0  0  0  0  0  0  0  0  0  0
    4.5780   -7.3661   -4.3593 F   0  0  0  0  0  0  0  0  0  0  0  0
    2.3003   -7.2318   -4.1414 N   0  0  0  0  0  0  0  0  0  0  0  0
    1.1402   -6.5971   -4.3390 C   0  0  0  0  0  0  0  0  0  0  0  0
    1.0745   -5.3760   -5.0366 C   0  0  0  0  0  0  0  0  0  0  0  0
   -0.1964   -4.7857   -5.2416 C   0  0  0  0  0  0  0  0  0  0  0  0
   -1.3625   -5.3860   -4.7433 C   0  0  0  0  0  0  0  0  0  0  0  0
   -2.6642   -4.7832   -4.9964 C   0  0  0  0  0  0  0  0  0  0  0  0
   -2.7821   -3.6359   -5.3862 O   0  0  0  0  0  0  0  0  0  0  0  0
   -3.8725   -5.6083   -4.6472 C   0  0  0  0  0  0  0  0  0  0  0  0
   -4.9685   -5.3325   -5.1030 O   0  0  0  0  0  0  0  0  0  0  0  0
   -3.6851   -6.5377   -3.4907 C   0  0  1  0  0  0  0  0  0  0  0  0
   -2.3722   -7.1257   -3.3724 O   0  0  0  0  0  0  0  0  0  0  0  0
   -1.3021   -6.5403   -3.9897 C   0  0  0  0  0  0  0  0  0  0  0  0
   -0.0469   -7.1388   -3.8248 C   0  0  0  0  0  0  0  0  0  0  0  0
    0.0222   -8.2814   -3.1239 F   0  0  0  0  0  0  0  0  0  0  0  0
   -4.0930   -5.7747   -2.2146 C   0  0  1  0  0  0  0  0  0  0  0  0
   -3.9158   -6.5780   -1.0432 O   0  0  0  0  0  0  0  0  0  0  0  0
   -3.3485   -4.5876   -2.0896 O   0  3  0  0  0  0  0  0  0  0  0  0
   -4.4161   -3.8338   -1.9441 C   0  0  0  0  0  0  0  0  0  0  0  0
   -5.3625   -4.9118   -2.2080 C   0  0  0  0  0  0  0  0  0  0  0  0
   -6.5569   -4.8669   -2.3012 O   0  0  0  0  0  0  0  0  0  0  0  0
    2.0772   -1.6197   -1.6961 C   0  0  0  0  0  0  0  0  0  0  0  0
    2.3095   -2.7197   -1.2160 O   0  0  0  0  0  0  0  0  0  0  0  0
    1.6004   -0.4468   -0.8643 C   0  0  0  0  0  0  0  0  0  0  0  0
    1.8308   -0.4136    0.3308 O   0  0  0  0  0  0  0  0  0  0  0  0
    0.8139    0.6609   -1.5550 C   0  0  0  0  0  0  0  0  0  0  0  0
    0.5306    1.7074   -1.0032 O   0  0  0  0  0  0  0  0  0  0  0  0
  1  2  1  0  0  0  0
  2  3  2  0  0  0  0
  3  4  1  0  0  0  0
  3 54  1  0  0  0  0
  4  5  1  0  0  0  0
  5  6  1  6  0  0  0
  5 50  1  0  0  0  0
  6  7  1  0  0  0  0
  7  8  2  0  0  0  0
  7 12  1  0  0  0  0
  8  9  1  0  0  0  0
  8 26  1  0  0  0  0
  9 10  1  0  0  0  0
 10 11  2  0  0  0  0
 10 21  1  0  0  0  0
 11 12  1  0  0  0  0
 11 13  1  0  0  0  0
 13 14  1  0  0  0  0
 13 19  1  0  0  0  0
 14 15  1  0  0  0  0
 15 16  2  0  0  0  0
 15 17  1  0  0  0  0
 17 18  1  0  0  0  0
 18 19  1  0  0  0  0
 18 25  1  0  0  0  0
 19 20  2  0  0  0  0
 20 21  1  0  0  0  0
 20 22  1  0  0  0  0
 22 23  1  0  0  0  0
 22 24  1  0  0  0  0
 23 24  1  0  0  0  0
 26 27  2  0  0  0  0
 26 32  1  0  0  0  0
 27 28  1  0  0  0  0
 28 29  1  0  0  0  0
 28 30  2  0  0  0  0
 30 31  1  0  0  0  0
 31 32  2  0  0  0  0
 31 42  1  0  0  0  0
 32 33  1  0  0  0  0
 33 34  2  0  0  0  0
 34 35  1  0  0  0  0
 34 41  1  0  0  0  0
 35 36  2  0  0  0  0
 35 37  1  0  0  0  0
 37 38  2  0  0  0  0
 39 37  1  6  0  0  0
 39 40  1  0  0  0  0
 39 44  1  0  0  0  0
 40 41  1  0  0  0  0
 41 42  2  0  0  0  0
 42 43  1  0  0  0  0
 44 45  1  1  0  0  0
 44 46  1  0  0  0  0
 44 48  1  0  0  0  0
 46 47  2  0  0  0  0
 47 48  1  0  0  0  0
 48 49  2  0  0  0  0
 50 51  2  0  0  0  0
 50 52  1  0  0  0  0
 52 53  2  0  0  0  0
 52 54  1  0  0  0  0
 54 55  2  0  0  0  0
M  CHG  3  21   1  28   1  46   1
M  END
$$$$