
 OpenBabel11262000553D

 54 62  0  0  1  0  0  0  0  0999 V2000
    2.4340   -6.9580   -0.3808 O   0  0  0  0  0  0  0  0  0  0  0  0
    2.7056   -5.9206    0.4792 C   0  0  0  0  0  0  0  0  0  0  0  0
    3.0383   -4.6950    0.0578 C   0  0  0  0  0  0  0  0  0  0  0  0
    3.1912   -4.4234   -1.2931 O   0  0  0  0  0  0  0  0  0  0  0  0
    2.6203   -3.1749   -1.6789 C   0  0  2  0  0  0  0  0  0  0  0  0
    2.9836   -2.8618   -3.0643 O   0  0  0  0  0  0  0  0  0  0  0  0
    2.5659   -3.7284   -4.0730 C   0  0  0  0  0  0  0  0  0  0  0  0
    2.8516   -3.4490   -5.3636 C   0  0  0  0  0  0  0  0  0  0  0  0
    2.4427   -4.2692   -6.4290 O   0  0  0  0  0  0  0  0  0  0  0  0
    1.5784   -5.3585   -6.1821 C   0  0  0  0  0  0  0  0  0  0  0  0
    1.2172   -5.6777   -4.9218 C   0  0  0  0  0  0  0  0  0  0  0  0
    1.7542   -4.9569   -3.7183 C   0  0  0  0  0  0  0  0  0  0  0  0
    0.2378   -6.7952   -4.6196 C   0  0  3  0  0  0  0  0  0  0  0  0
   -0.8567   -6.2314   -3.9190 O   0  0  0  0  0  0  0  0  0  0  0  0
   -1.8990   -7.0618   -3.6842 C   0  0  0  0  0  0  0  0  0  0  0  0
   -2.7470   -6.7651   -2.7788 N   0  0  0  0  0  0  0  0  0  0  0  0
   -2.0342   -8.1796   -4.4269 O   0  0  0  0  0  0  0  0  0  0  0  0
   -1.3573   -8.3484   -5.5744 C   0  0  0  0  0  0  0  0  0  0  0  0
   -1.5641   -9.2592   -6.3607 O   0  0  0  0  0  0  0  0  0  0  0  0
   -0.3083   -7.3706   -5.8557 C   0  0  0  0  0  0  0  0  0  0  0  0
    0.0964   -7.0367   -7.0980 C   0  0  0  0  0  0  0  0  0  0  0  0
    1.0879   -6.0750   -7.2635 O   0  3  0  0  0  0  0  0  0  0  0  0
   -0.4351   -7.6152   -8.3607 C   0  0  0  0  0  0  0  0  0  0  0  0
    0.0856   -7.1548   -9.6246 O   0  0  0  0  0  0  0  0  0  0  0  0
    0.3738   -8.4863   -9.1602 O   0  0  0  0  0  0  0  0  0  0  0  0
    3.6156   -2.2221   -5.7450 C   0  0  0  0  0  0  0  0  0  0  0  0
    5.0189   -2.2410   -5.6890 C   0  0  0  0  0  0  0  0  0  0  0  0
    5.7153   -1.1432   -6.0040 N   0  3  0  0  0  0  0  0  0  0  0  0
    7.0643   -1.1774   -5.9752 F   0  0  0  0  0  0  0  0  0  0  0  0
    5.1261   -0.0201   -6.3590 N   0  0  0  0  0  0  0  0  0  0  0  0
    3.7847    0.0339   -6.4172 C   0  0  0  0  0  0  0  0  0  0  0  0
    2.9783   -1.0599   -6.1219 N   0  3  0  0  0  0  0  0  0  0  0  0
    1.6184   -0.9285   -6.2103 C   0  0  0  0  0  0  0  0  0  0  0  0
    1.0251    0.2651   -6.6283 C   0  0  0  0  0  0  0  0  0  0  0  0
   -0.4244    0.3738   -6.7318 C   0  0  0  0  0  0  0  0  0  0  0  0
   -1.0904   -0.5321   -6.2605 O   0  0  0  0  0  0  0  0  0  0  0  0
   -0.9933    1.5466   -7.5174 C   0  0  0  0  0  0  0  0  0  0  0  0
   -2.1732    1.5531   -7.8280 O   0  0  0  0  0  0  0  0  0  0  0  0
    0.0471    2.4993   -8.0840 C   0  0  1  0  0  0  0  0  0  0  0  0
    1.2624    2.5500   -7.2997 O   0  0  0  0  0  0  0  0  0  0  0  0
    1.7961    1.3532   -6.9375 C   0  0  0  0  0  0  0  0  0  0  0  0
    3.1712    1.2312   -6.8044 C   0  0  0  0  0  0  0  0  0  0  0  0
    3.9486    2.2875   -7.0765 F   0  0  0  0  0  0  0  0  0  0  0  0
    0.3857    2.1893   -9.5192 C   0  0  1  0  0  0  0  0  0  0  0  0
    1.5975    2.8011  -10.0241 O   0  0  0  0  0  0  0  0  0  0  0  0
    0.2424    0.8090   -9.8502 O   0  0  0  0  0  0  0  0  0  0  0  0
   -0.5411    1.6848  -10.5412 C   0  0  0  0  0  0  0  0  0  0  0  0
   -0.5514    1.8793  -11.7287 O   0  0  0  0  0  0  0  0  0  0  0  0
    3.1057   -2.0588   -0.8069 C   0  0  0  0  0  0  0  0  0  0  0  0
    3.4248   -2.2705    0.4724 C   0  0  0  0  0  0  0  0  0  0  0  0
    3.2920   -3.6182    1.0687 C   0  0  0  0  0  0  0  0  0  0  0  0
    3.3694   -3.8274    2.2683 O   0  0  0  0  0  0  0  0  0  0  0  0
    3.8172   -1.2731    1.2844 F   0  0  0  0  0  0  0  0  0  0  0  0
    3.2002   -0.8119   -1.3240 F   0  0  0  0  0  0  0  0  0  0  0  0
  1  2  1  0  0  0  0
  2  3  2  0  0  0  0
  3  4  1  0  0  0  0
  3 51  1  0  0  0  0
  4  5  1  0  0  0  0
  5 49  1  0  0  0  0
  5  6  1  6  0  0  0
  6  7  1  0  0  0  0
  7  8  2  0  0  0  0
  7 12  1  0  0  0  0
  8  9  1  0  0  0  0
  8 26  1  0  0  0  0
  9 10  1  0  0  0  0
 10 11  2  0  0  0  0
 10 22  1  0  0  0  0
 11 12  1  0  0  0  0
 11 13  1  0  0  0  0
 13 14  1  0  0  0  0
 13 20  1  0  0  0  0
 14 15  1  0  0  0  0
 15 16  2  0  0  0  0
 15 17  1  0  0  0  0
 17 18  1  0  0  0  0
 18 19  2  0  0  0  0
 18 20  1  0  0  0  0
 20 21  2  0  0  0  0
 21 22  1  0  0  0  0
 21 23  1  0  0  0  0
 23 24  1  0  0  0  0
 23 25  1  0  0  0  0
 24 25  1  0  0  0  0
 26 27  2  0  0  0  0
 26 32  1  0  0  0  0
 27 28  1  0  0  0  0
 28 29  1  0  0  0  0
 28 30  2  0  0  0  0
 30 31  1  0  0  0  0
 31 32  2  0  0  0  0
 31 42  1  0  0  0  0
 32 33  1  0  0  0  0
 33 34  2  0  0  0  0
 34 35  1  0  0  0  0
 34 41  1  0  0  0  0
 35 36  2  0  0  0  0
 35 37  1  0  0  0  0
 37 38  2  0  0  0  0
 39 37  1  1  0  0  0
 39 40  1  0  0  0  0
 39 44  1  0  0  0  0
 40 41  1  0  0  0  0
 41 42  2  0  0  0  0
 42 43  1  0  0  0  0
 44 45  1  6  0  0  0
 44 46  1  0  0  0  0
 44 47  1  0  0  0  0
 46 47  1  0  0  0  0
 47 48  2  0  0  0  0
 49 50  2  0  0  0  0
 49 54  1  0  0  0  0
 50 51  1  0  0  0  0
 50 53  1  0  0  0  0
 51 52  2  0  0  0  0
M  CHG  3  22   1  28   1  32   1
M  END
$$$$