
 OpenBabel10232015553D

 91106  0  0  1  0  0  0  0  0999 V2000
    5.6228    7.0750   -8.9909 C   0  0  0  0  0  0  0  0  0  0  0  0
    5.2102    7.2817   -7.5308 C   0  0  3  0  0  0  0  0  0  0  0  0
    5.3956    5.9637   -6.7587 C   0  0  0  0  0  0  0  0  0  0  0  0
    4.9538    6.0772   -5.3033 C   0  0  0  0  0  0  0  0  0  0  0  0
    3.5257    6.5997   -5.1963 C   0  0  0  0  0  0  0  0  0  0  0  0
    3.3377    7.9571   -5.9044 C   0  0  3  0  0  0  0  0  0  0  0  0
    3.7482    7.7897   -7.3897 C   0  0  3  0  0  0  0  0  0  0  0  0
    3.4426    9.1009   -8.1154 C   0  0  0  0  0  0  0  0  0  0  0  0
    4.2430   10.2896   -7.5668 C   0  0  3  0  0  0  0  0  0  0  0  0
    3.6009   11.5850   -8.0843 C   0  0  0  0  0  0  0  0  0  0  0  0
    4.3873   10.2836   -6.0507 C   0  0  0  0  0  0  0  0  0  0  0  0
    4.0058    9.1867   -5.2660 C   0  0  0  0  0  0  0  0  0  0  0  0
    4.2123    9.2539   -3.8629 C   0  0  0  0  0  0  0  0  0  0  0  0
    4.8019   10.3335   -3.1733 C   0  0  0  0  0  0  0  0  0  0  0  0
    5.1923   11.3902   -4.0186 C   0  0  0  0  0  0  0  0  0  0  0  0
    5.0071   11.3631   -5.4085 C   0  0  0  0  0  0  0  0  0  0  0  0
    5.7572   12.5127   -3.5306 F   0  0  0  0  0  0  0  0  0  0  0  0
    5.0139   10.3680   -1.6662 C   0  0  0  0  0  0  0  0  0  0  0  0
    6.1104   11.1325   -1.1493 C   0  0  0  0  0  0  0  0  0  0  0  0
    6.3962   11.2964    0.2258 C   0  0  0  0  0  0  0  0  0  0  0  0
    7.6044   12.0561    0.6930 C   0  0  0  0  0  0  0  0  0  0  0  0
    7.5009   12.5291    2.1567 C   0  0  0  0  0  0  0  0  0  0  0  0
    7.0830   11.4039    3.1320 C   0  0  3  0  0  0  0  0  0  0  0  0
    5.7370   10.7784    2.6511 C   0  0  3  0  0  0  0  0  0  0  0  0
    5.5381   10.7249    1.1444 C   0  0  0  0  0  0  0  0  0  0  0  0
    4.3844   10.0639    0.6807 C   0  0  0  0  0  0  0  0  0  0  0  0
    4.1907    9.7359   -0.6846 C   0  0  0  0  0  0  0  0  0  0  0  0
    3.1800    8.6113   -0.9390 C   0  0  3  0  0  0  0  0  0  0  0  0
    4.1342    7.0857   -1.1228 Cl  0  0  0  0  0  0  0  0  0  0  0  0
    2.1320    8.3425    0.1574 C   0  0  0  0  0  0  0  0  0  0  0  0
    1.9416    9.5532    1.0407 C   0  0  0  0  0  0  0  0  0  0  0  0
    3.2803    9.8375    1.7084 C   0  0  3  0  0  0  0  0  0  0  0  0
    3.1787   11.1389    2.5012 C   0  0  0  0  0  0  0  0  0  0  0  0
    4.4688   11.3779    3.2686 C   0  0  3  0  0  0  0  0  0  0  0  0
    4.3170   10.8163    4.4996 F   0  0  0  0  0  0  0  0  0  0  0  0
    7.1913   11.6841    4.7016 C   0  0  3  0  0  0  0  0  0  0  0  0
    8.5706   12.0042    5.0446 O   0  0  0  0  0  0  0  0  0  0  0  0
    8.9384   13.3213    5.0261 C   0  0  0  0  0  0  0  0  0  0  0  0
    8.0150   14.3536    4.8221 C   0  0  0  0  0  0  0  0  0  0  0  0
    6.5446   14.0998    4.8813 C   0  0  3  0  0  0  0  0  0  0  0  0
    6.2558   12.7006    5.4079 C   0  0  3  0  0  0  0  0  0  0  0  0
    6.4562   12.7317    6.8328 O   0  0  0  0  0  0  0  0  0  0  0  0
    5.9036   15.1148    5.6472 O   0  0  0  0  0  0  0  0  0  0  0  0
    8.5150   15.5889    4.4501 C   0  0  0  0  0  0  0  0  0  0  0  0
    9.8784   15.8555    4.2564 C   0  0  0  0  0  0  0  0  0  0  0  0
   10.8132   14.9115    4.7852 C   0  0  0  0  0  0  0  0  0  0  0  0
   10.2836   13.6484    5.1199 C   0  0  0  0  0  0  0  0  0  0  0  0
   11.1565   12.6462    5.4089 F   0  0  0  0  0  0  0  0  0  0  0  0
   12.1305   15.3559    4.8232 C   0  0  0  0  0  0  0  0  0  0  0  0
   13.3844   14.4162    5.5800 Cl  0  0  0  0  0  0  0  0  0  0  0  0
   12.5588   16.5813    4.2466 C   0  0  0  0  0  0  0  0  0  0  0  0
   11.7446   17.3817    3.4157 C   0  0  0  0  0  0  0  0  0  0  0  0
   10.3905   16.9382    3.4835 C   0  0  0  0  0  0  0  0  0  0  0  0
    9.1887   17.4406    2.2887 Cl  0  0  0  0  0  0  0  0  0  0  0  0
   12.3505   18.5424    2.5450 C   0  0  0  0  0  0  0  0  0  0  0  0
   11.5243   19.3603    1.7169 C   0  0  0  0  0  0  0  0  0  0  0  0
   11.9143   20.3592    0.6813 C   0  0  0  0  0  0  0  0  0  0  0  0
   13.2538   20.7342    0.9562 N   0  3  0  0  0  0  0  0  0  0  0  0
   14.0681   20.0655    1.8546 N   0  3  0  0  0  0  0  0  0  0  0  0
   13.7204   18.8850    2.4410 C   0  0  0  0  0  0  0  0  0  0  0  0
   14.8682   18.0184    2.8966 C   0  0  0  0  0  0  0  0  0  0  0  0
   15.5989   20.7899    2.2477 Cl  0  0  0  0  0  0  0  0  0  0  0  0
   13.8222   21.7621    0.3548 N   0  0  0  0  0  0  0  0  0  0  0  0
   13.2635   22.4045   -0.6582 C   0  0  0  0  0  0  0  0  0  0  0  0
   12.0148   22.1268   -1.2000 C   0  0  0  0  0  0  0  0  0  0  0  0
   11.2479   21.1032   -0.5763 C   0  0  0  0  0  0  0  0  0  0  0  0
    9.7080   20.8061   -1.2583 N   0  3  0  0  0  0  0  0  0  0  0  0
    8.5213   20.4697   -0.5612 N   0  3  0  0  0  0  0  0  0  0  0  0
    8.4422   20.2449    1.1187 Cl  0  0  0  0  0  0  0  0  0  0  0  0
    7.2601   20.4056   -1.1516 C   0  0  0  0  0  0  0  0  0  0  0  0
    6.9717   20.6672   -2.5009 C   0  0  0  0  0  0  0  0  0  0  0  0
    8.0973   20.9376   -3.2499 C   0  0  0  0  0  0  0  0  0  0  0  0
    9.4575   20.9598   -2.6537 C   0  0  0  0  0  0  0  0  0  0  0  0
   10.4907   21.0980   -3.5925 N   0  0  0  0  0  0  0  0  0  0  0  0
    7.8957   21.1403   -4.5564 N   0  0  0  0  0  0  0  0  0  0  0  0
    6.7225   21.0184   -5.2108 N   0  3  0  0  0  0  0  0  0  0  0  0
    5.5674   20.6869   -4.5510 C   0  0  0  0  0  0  0  0  0  0  0  0
    5.6989   20.6209   -3.1515 N   0  3  0  0  0  0  0  0  0  0  0  0
    4.5467   20.5435   -2.4066 N   0  0  0  0  0  0  0  0  0  0  0  0
    3.3122   20.4989   -2.9876 N   0  3  0  0  0  0  0  0  0  0  0  0
    3.2223   20.3447   -4.3210 C   0  0  0  0  0  0  0  0  0  0  0  0
    4.3336   20.4075   -5.0855 N   0  3  0  0  0  0  0  0  0  0  0  0
    4.1142   19.9327   -6.7204 Cl  0  0  0  0  0  0  0  0  0  0  0  0
    2.0224   20.6515   -2.1636 C   0  0  0  0  0  0  0  0  0  0  0  0
    1.5456   19.2846   -1.6924 C   0  0  0  0  0  0  0  0  0  0  0  0
    2.3298   18.7618   -0.4952 C   0  0  0  0  0  0  0  0  0  0  0  0
    2.3644   19.7800    0.6395 C   0  0  0  0  0  0  0  0  0  0  0  0
    2.9480   21.1133    0.1884 C   0  0  0  0  0  0  0  0  0  0  0  0
    2.2343   21.6706   -1.0423 C   0  0  0  0  0  0  0  0  0  0  0  0
    6.7859   21.5105   -6.8492 Cl  0  0  0  0  0  0  0  0  0  0  0  0
   11.7732   22.7205   -2.4573 N   0  0  0  0  0  0  0  0  0  0  0  0
  1  2  1  0  0  0  0
  2  3  1  0  0  0  0
  2  7  1  0  0  0  0
  3  4  1  0  0  0  0
  4  5  1  0  0  0  0
  5  6  1  0  0  0  0
  6  7  1  0  0  0  0
  6 12  1  0  0  0  0
  7  8  1  0  0  0  0
  8  9  1  0  0  0  0
  9 10  1  0  0  0  0
  9 11  1  0  0  0  0
 11 12  2  0  0  0  0
 11 16  1  0  0  0  0
 12 13  1  0  0  0  0
 13 14  2  0  0  0  0
 14 15  1  0  0  0  0
 14 18  1  0  0  0  0
 15 16  2  0  0  0  0
 15 17  1  0  0  0  0
 18 19  2  0  0  0  0
 18 27  1  0  0  0  0
 19 20  1  0  0  0  0
 20 21  1  0  0  0  0
 20 25  2  0  0  0  0
 21 22  1  0  0  0  0
 22 23  1  0  0  0  0
 23 24  1  0  0  0  0
 23 36  1  0  0  0  0
 24 25  1  0  0  0  0
 24 34  1  0  0  0  0
 25 26  1  0  0  0  0
 26 27  2  0  0  0  0
 26 32  1  0  0  0  0
 27 28  1  0  0  0  0
 28 29  1  0  0  0  0
 28 30  1  0  0  0  0
 30 31  1  0  0  0  0
 31 32  1  0  0  0  0
 32 33  1  0  0  0  0
 33 34  1  0  0  0  0
 34 35  1  0  0  0  0
 36 37  1  0  0  0  0
 36 41  1  0  0  0  0
 37 38  1  0  0  0  0
 38 39  2  0  0  0  0
 38 47  1  0  0  0  0
 39 40  1  0  0  0  0
 39 44  1  0  0  0  0
 40 41  1  0  0  0  0
 40 43  1  0  0  0  0
 41 42  1  0  0  0  0
 44 45  2  0  0  0  0
 45 46  1  0  0  0  0
 45 53  1  0  0  0  0
 46 47  2  0  0  0  0
 46 49  1  0  0  0  0
 47 48  1  0  0  0  0
 49 50  1  0  0  0  0
 49 51  2  0  0  0  0
 51 52  1  0  0  0  0
 52 53  2  0  0  0  0
 52 55  1  0  0  0  0
 53 54  1  0  0  0  0
 55 56  2  0  0  0  0
 55 60  1  0  0  0  0
 56 57  1  0  0  0  0
 57 58  2  0  0  0  0
 57 66  1  0  0  0  0
 58 59  1  0  0  0  0
 58 63  1  0  0  0  0
 59 60  2  0  0  0  0
 59 62  1  0  0  0  0
 60 61  1  0  0  0  0
 63 64  2  0  0  0  0
 64 65  1  0  0  0  0
 65 66  2  0  0  0  0
 65 91  1  0  0  0  0
 66 67  1  0  0  0  0
 67 68  2  0  0  0  0
 67 73  1  0  0  0  0
 68 69  1  0  0  0  0
 68 70  1  0  0  0  0
 70 71  2  0  0  0  0
 71 72  1  0  0  0  0
 71 78  1  0  0  0  0
 72 73  2  0  0  0  0
 72 75  1  0  0  0  0
 73 74  1  0  0  0  0
 75 76  2  0  0  0  0
 76 77  1  0  0  0  0
 76 90  1  0  0  0  0
 77 78  2  0  0  0  0
 77 82  1  0  0  0  0
 78 79  1  0  0  0  0
 79 80  2  0  0  0  0
 80 81  1  0  0  0  0
 80 84  1  0  0  0  0
 81 82  2  0  0  0  0
 82 83  1  0  0  0  0
 84 85  1  0  0  0  0
 84 89  1  0  0  0  0
 85 86  1  0  0  0  0
 86 87  1  0  0  0  0
 87 88  1  0  0  0  0
 88 89  1  0  0  0  0
M  CHG  8  58   1  59   1  67   1  68   1  76   1  78   1  80   1  82   1
M  END
$$$$