
 OpenBabel09282020523D

 51 59  0  0  1  0  0  0  0  0999 V2000
    5.1937   -1.4483    5.7960 O   0  0  0  0  0  0  0  0  0  0  0  0
    4.0382   -0.7131    5.7881 C   0  0  0  0  0  0  0  0  0  0  0  0
    2.8982   -1.0649    5.1761 C   0  0  0  0  0  0  0  0  0  0  0  0
    2.8058   -2.2405    4.4563 O   0  0  0  0  0  0  0  0  0  0  0  0
    1.5192   -2.8567    4.4199 C   0  0  2  0  0  0  0  0  0  0  0  0
    1.5098   -3.9061    3.4262 O   0  0  0  0  0  0  0  0  0  0  0  0
    1.8558   -5.1643    3.8737 C   0  0  0  0  0  0  0  0  0  0  0  0
    2.6729   -5.2781    4.9727 N   0  0  0  0  0  0  0  0  0  0  0  0
    2.9762   -6.5031    5.4996 C   0  0  0  0  0  0  0  0  0  0  0  0
    2.5386   -7.6481    4.9489 C   0  0  0  0  0  0  0  0  0  0  0  0
    1.7609   -7.5893    3.7773 O   0  0  0  0  0  0  0  0  0  0  0  0
    1.4161   -6.3049    3.2706 C   0  0  0  0  0  0  0  0  0  0  0  0
    0.6223   -6.3541    2.0240 C   0  0  0  0  0  0  0  0  0  0  0  0
    1.3828   -6.4290    0.9068 N   0  0  0  0  0  0  0  0  0  0  0  0
    0.7272   -6.5258   -0.2535 C   0  0  0  0  0  0  0  0  0  0  0  0
   -0.6000   -6.5693   -0.4058 N   0  0  0  0  0  0  0  0  0  0  0  0
   -1.3403   -6.5009    0.7004 C   0  0  0  0  0  0  0  0  0  0  0  0
   -0.7870   -6.3891    1.9891 C   0  0  0  0  0  0  0  0  0  0  0  0
   -1.6647   -6.3273    3.1032 C   0  0  0  0  0  0  0  0  0  0  0  0
   -3.0538   -6.3644    2.9152 C   0  0  0  0  0  0  0  0  0  0  0  0
   -3.5853   -6.5009    1.6420 C   0  0  0  0  0  0  0  0  0  0  0  0
   -2.7212   -6.5537    0.5503 C   0  0  0  0  0  0  0  0  0  0  0  0
   -4.9184   -6.5677    1.3552 O   0  0  0  0  0  0  0  0  0  0  0  0
   -5.7910   -6.9403    2.4290 C   0  0  2  0  0  0  0  0  0  0  0  0
   -5.4501   -6.3002    3.7505 C   0  0  0  0  0  0  0  0  0  0  0  0
   -6.2829   -5.9675    4.5816 O   0  0  0  0  0  0  0  0  0  0  0  0
   -3.9691   -6.2500    4.0561 C   0  0  0  0  0  0  0  0  0  0  0  0
   -3.5678   -6.1690    5.2057 O   0  0  0  0  0  0  0  0  0  0  0  0
   -5.9215   -8.4343    2.5141 C   0  0  1  0  0  0  0  0  0  0  0  0
   -6.4317   -9.0899    1.3270 O   0  0  0  0  0  0  0  0  0  0  0  0
   -4.8356   -9.0930    3.1675 O   0  0  0  0  0  0  0  0  0  0  0  0
   -6.0475   -9.2076    3.7542 C   0  0  0  0  0  0  0  0  0  0  0  0
   -6.6789  -10.2121    3.9900 O   0  0  0  0  0  0  0  0  0  0  0  0
    2.8152   -8.8685    5.5233 N   0  0  0  0  0  0  0  0  0  0  0  0
    3.4889   -8.9988    6.7389 C   0  0  0  0  0  0  0  0  0  0  0  0
    3.9642   -7.8976    7.3609 C   0  0  0  0  0  0  0  0  0  0  0  0
    3.7527   -6.5650    6.7637 C   0  0  0  0  0  0  0  0  0  0  0  0
    4.1802   -5.4712    7.3075 N   0  0  0  0  0  0  0  0  0  0  0  0
    4.8521   -5.5545    8.5096 C   0  0  0  0  0  0  0  0  0  0  0  0
    5.2263   -4.5101    9.0257 O   0  0  0  0  0  0  0  0  0  0  0  0
    5.1123   -6.7472    9.1558 N   0  0  0  0  0  0  0  0  0  0  0  0
    4.6950   -7.8470    8.6283 C   0  0  0  0  0  0  0  0  0  0  0  0
    3.6286  -10.3749    7.2702 C   0  0  0  0  0  0  0  0  0  0  0  0
    3.0857  -10.7528    8.5467 O   0  0  0  0  0  0  0  0  0  0  0  0
    2.5137  -11.2793    7.3347 O   0  0  0  0  0  0  0  0  0  0  0  0
    0.3412   -1.9542    4.0961 C   0  0  0  0  0  0  0  0  0  0  0  0
   -0.7092   -2.3275    3.5882 O   0  0  0  0  0  0  0  0  0  0  0  0
    0.5029   -0.5355    4.5724 C   0  0  0  0  0  0  0  0  0  0  0  0
   -0.4166    0.2576    4.4286 O   0  0  0  0  0  0  0  0  0  0  0  0
    1.7768   -0.0889    5.2441 C   0  0  0  0  0  0  0  0  0  0  0  0
    1.8503    0.9998    5.7919 O   0  0  0  0  0  0  0  0  0  0  0  0
  1  2  1  0  0  0  0
  2  3  2  0  0  0  0
  3  4  1  0  0  0  0
  3 50  1  0  0  0  0
  4  5  1  0  0  0  0
  5  6  1  6  0  0  0
  5 46  1  0  0  0  0
  6  7  1  0  0  0  0
  7  8  1  0  0  0  0
  7 12  2  0  0  0  0
  8  9  1  0  0  0  0
  9 10  2  0  0  0  0
  9 37  1  0  0  0  0
 10 11  1  0  0  0  0
 10 34  1  0  0  0  0
 11 12  1  0  0  0  0
 12 13  1  0  0  0  0
 13 14  2  0  0  0  0
 13 18  1  0  0  0  0
 14 15  1  0  0  0  0
 15 16  2  0  0  0  0
 16 17  1  0  0  0  0
 17 18  2  0  0  0  0
 17 22  1  0  0  0  0
 18 19  1  0  0  0  0
 19 20  2  0  0  0  0
 20 21  1  0  0  0  0
 20 27  1  0  0  0  0
 21 22  2  0  0  0  0
 21 23  1  0  0  0  0
 24 23  1  6  0  0  0
 24 25  1  0  0  0  0
 24 29  1  0  0  0  0
 25 26  2  0  0  0  0
 25 27  1  0  0  0  0
 27 28  2  0  0  0  0
 29 30  1  6  0  0  0
 29 31  1  0  0  0  0
 29 32  1  0  0  0  0
 31 32  1  0  0  0  0
 32 33  2  0  0  0  0
 34 35  1  0  0  0  0
 35 36  2  0  0  0  0
 35 43  1  0  0  0  0
 36 37  1  0  0  0  0
 36 42  1  0  0  0  0
 37 38  2  0  0  0  0
 38 39  1  0  0  0  0
 39 40  2  0  0  0  0
 39 41  1  0  0  0  0
 41 42  2  0  0  0  0
 43 44  1  0  0  0  0
 43 45  1  0  0  0  0
 44 45  1  0  0  0  0
 46 47  2  0  0  0  0
 46 48  1  0  0  0  0
 48 49  2  0  0  0  0
 48 50  1  0  0  0  0
 50 51  2  0  0  0  0
M  END
$$$$