
 OpenBabel11232003103D

 54 62  0  0  1  0  0  0  0  0999 V2000
    2.0842    4.1744   -3.2285 O   0  0  0  0  0  0  0  0  0  0  0  0
    2.3750    3.4039   -2.1251 C   0  0  0  0  0  0  0  0  0  0  0  0
    2.4159    2.0655   -2.1454 C   0  0  0  0  0  0  0  0  0  0  0  0
    2.1028    1.3828   -3.3018 O   0  0  0  0  0  0  0  0  0  0  0  0
    2.6327    0.0795   -3.4630 C   0  0  2  0  0  0  0  0  0  0  0  0
    2.0998   -0.5729   -4.6451 O   0  0  0  0  0  0  0  0  0  0  0  0
    2.3633   -0.0176   -5.8877 C   0  0  0  0  0  0  0  0  0  0  0  0
    2.3861   -0.7718   -7.0135 C   0  0  0  0  0  0  0  0  0  0  0  0
    2.5293   -0.1593   -8.2793 O   0  0  0  0  0  0  0  0  0  0  0  0
    2.5285    1.2363   -8.4174 C   0  0  0  0  0  0  0  0  0  0  0  0
    2.5926    2.0273   -7.3391 C   0  0  0  0  0  0  0  0  0  0  0  0
    2.5783    1.4726   -5.9511 C   0  0  0  0  0  0  0  0  0  0  0  0
    2.6430    3.5160   -7.4220 C   0  0  3  0  0  0  0  0  0  0  0  0
    3.8326    3.9474   -6.8043 O   0  0  0  0  0  0  0  0  0  0  0  0
    3.9245    5.2990   -6.6582 C   0  0  0  0  0  0  0  0  0  0  0  0
    4.5158    5.8093   -5.7318 O   0  0  0  0  0  0  0  0  0  0  0  0
    3.3929    6.0176   -7.6879 O   0  0  0  0  0  0  0  0  0  0  0  0
    3.0076    5.4174   -8.8144 C   0  0  0  0  0  0  0  0  0  0  0  0
    2.8813    5.9860   -9.8976 O   0  0  0  0  0  0  0  0  0  0  0  0
    2.7413    3.9752   -8.8313 C   0  0  0  0  0  0  0  0  0  0  0  0
    2.6343    3.1805   -9.9438 C   0  0  0  0  0  0  0  0  0  0  0  0
    2.4755    1.7668   -9.7055 O   0  3  0  0  0  0  0  0  0  0  0  0
    2.6895    3.6366  -11.4246 C   0  0  0  0  0  0  0  0  0  0  0  0
    3.4856    4.8391  -11.9043 N   0  3  0  0  0  0  0  0  0  0  0  0
    2.4076    5.0450  -11.9236 N   0  3  0  0  0  0  0  0  0  0  0  0
    2.3091   -2.2918   -7.0224 C   0  0  0  0  0  0  0  0  0  0  0  0
    2.8045   -3.0127   -5.9253 C   0  0  0  0  0  0  0  0  0  0  0  0
    2.7897   -4.3505   -5.8885 N   0  3  0  0  0  0  0  0  0  0  0  0
    3.2836   -4.9825   -4.8048 F   0  0  0  0  0  0  0  0  0  0  0  0
    2.3352   -5.0794   -6.8845 N   0  0  0  0  0  0  0  0  0  0  0  0
    1.8615   -4.4877   -7.9793 C   0  0  0  0  0  0  0  0  0  0  0  0
    1.8288   -3.0789   -8.1085 C   0  0  0  0  0  0  0  0  0  0  0  0
    1.3269   -2.5657   -9.3252 C   0  0  0  0  0  0  0  0  0  0  0  0
    0.9173   -3.3968  -10.3757 C   0  0  0  0  0  0  0  0  0  0  0  0
    0.5573   -2.7968  -11.6615 C   0  0  0  0  0  0  0  0  0  0  0  0
    0.8007   -1.6079  -11.8555 O   0  0  0  0  0  0  0  0  0  0  0  0
   -0.0367   -3.7282  -12.7017 C   0  0  0  0  0  0  0  0  0  0  0  0
   -0.1570   -3.3348  -13.8511 O   0  0  0  0  0  0  0  0  0  0  0  0
   -0.4830   -5.0756  -12.1551 C   0  0  1  0  0  0  0  0  0  0  0  0
    0.4303   -5.6211  -11.1789 O   0  0  0  0  0  0  0  0  0  0  0  0
    0.8944   -4.7646  -10.2230 C   0  0  0  0  0  0  0  0  0  0  0  0
    1.3878   -5.2893   -9.0281 C   0  0  0  0  0  0  0  0  0  0  0  0
    1.4147   -6.6218   -8.8752 F   0  0  0  0  0  0  0  0  0  0  0  0
   -1.8666   -4.9787  -11.5893 C   0  0  1  0  0  0  0  0  0  0  0  0
   -2.0459   -4.0500  -10.4789 O   0  0  0  0  0  0  0  0  0  0  0  0
   -2.8998   -4.9769  -12.5601 O   0  0  0  0  0  0  0  0  0  0  0  0
   -2.8993   -6.0233  -11.7046 C   0  0  0  0  0  0  0  0  0  0  0  0
   -3.7173   -6.3291  -10.8674 O   0  0  0  0  0  0  0  0  0  0  0  0
    2.2969   -0.7745   -2.2645 C   0  0  0  0  0  0  0  0  0  0  0  0
    1.7475   -1.8632   -2.3039 O   0  0  0  0  0  0  0  0  0  0  0  0
    2.8327   -0.1490   -1.0100 C   0  0  0  0  0  0  0  0  0  0  0  0
    3.5100   -0.8301   -0.2615 O   0  0  0  0  0  0  0  0  0  0  0  0
    2.7315    1.3570   -0.8670 C   0  0  0  0  0  0  0  0  0  0  0  0
    2.9273    1.9227    0.1914 O   0  0  0  0  0  0  0  0  0  0  0  0
  1  2  1  0  0  0  0
  2  3  2  0  0  0  0
  3  4  1  0  0  0  0
  3 53  1  0  0  0  0
  4  5  1  0  0  0  0
  5  6  1  6  0  0  0
  5 49  1  0  0  0  0
  6  7  1  0  0  0  0
  7  8  2  0  0  0  0
  7 12  1  0  0  0  0
  8  9  1  0  0  0  0
  8 26  1  0  0  0  0
  9 10  1  0  0  0  0
 10 11  2  0  0  0  0
 10 22  1  0  0  0  0
 11 12  1  0  0  0  0
 11 13  1  0  0  0  0
 13 14  1  0  0  0  0
 13 20  1  0  0  0  0
 14 15  1  0  0  0  0
 15 16  2  0  0  0  0
 15 17  1  0  0  0  0
 17 18  1  0  0  0  0
 18 19  2  0  0  0  0
 18 20  1  0  0  0  0
 20 21  2  0  0  0  0
 21 22  1  0  0  0  0
 21 23  1  0  0  0  0
 23 24  1  0  0  0  0
 23 25  1  0  0  0  0
 24 25  3  0  0  0  0
 26 27  2  0  0  0  0
 26 32  1  0  0  0  0
 27 28  1  0  0  0  0
 28 29  1  0  0  0  0
 28 30  2  0  0  0  0
 30 31  1  0  0  0  0
 31 32  2  0  0  0  0
 31 42  1  0  0  0  0
 32 33  1  0  0  0  0
 33 34  2  0  0  0  0
 34 35  1  0  0  0  0
 34 41  1  0  0  0  0
 35 36  2  0  0  0  0
 35 37  1  0  0  0  0
 37 38  2  0  0  0  0
 39 37  1  1  0  0  0
 39 40  1  0  0  0  0
 39 44  1  0  0  0  0
 40 41  1  0  0  0  0
 41 42  2  0  0  0  0
 42 43  1  0  0  0  0
 44 45  1  1  0  0  0
 44 46  1  0  0  0  0
 44 47  1  0  0  0  0
 46 47  1  0  0  0  0
 47 48  2  0  0  0  0
 49 50  2  0  0  0  0
 49 51  1  0  0  0  0
 51 52  2  0  0  0  0
 51 53  1  0  0  0  0
 53 54  2  0  0  0  0
M  CHG  4  22   1  24   1  25   1  28   1
M  END
$$$$