
 OpenBabel10242009503D

 87101  0  0  1  0  0  0  0  0999 V2000
   -5.2637   10.9771   14.0202 O   0  0  0  0  0  0  0  0  0  0  0  0
   -5.2716   10.3578   12.7117 C   0  0  3  0  0  0  0  0  0  0  0  0
   -4.5159   11.2085   11.6655 C   0  0  3  0  0  0  0  0  0  0  0  0
   -5.2254   12.4355   11.3750 O   0  0  0  0  0  0  0  0  0  0  0  0
   -6.5884   12.4860   11.4098 C   0  0  0  0  0  0  0  0  0  0  0  0
   -7.3778   11.4059   11.7741 C   0  0  0  0  0  0  0  0  0  0  0  0
   -6.7447   10.1597   12.3181 C   0  0  3  0  0  0  0  0  0  0  0  0
   -7.5068    9.7625   13.4883 O   0  0  0  0  0  0  0  0  0  0  0  0
   -8.7719   11.5197   11.6246 C   0  0  0  0  0  0  0  0  0  0  0  0
   -9.4393   12.7117   11.2448 C   0  0  0  0  0  0  0  0  0  0  0  0
   -8.6446   13.8744   11.0837 C   0  0  0  0  0  0  0  0  0  0  0  0
   -7.2249   13.6953   11.0986 C   0  0  0  0  0  0  0  0  0  0  0  0
   -6.4371   14.7512   10.8077 F   0  0  0  0  0  0  0  0  0  0  0  0
   -9.3569   15.0856   10.9227 C   0  0  0  0  0  0  0  0  0  0  0  0
   -8.5560   16.6032   10.6948 Cl  0  0  0  0  0  0  0  0  0  0  0  0
  -10.7757   15.1626   10.9705 C   0  0  0  0  0  0  0  0  0  0  0  0
  -11.5983   14.0259   10.9970 C   0  0  0  0  0  0  0  0  0  0  0  0
  -10.8585   12.8121   11.0333 C   0  0  0  0  0  0  0  0  0  0  0  0
  -11.6484   11.3289   10.5516 Cl  0  0  0  0  0  0  0  0  0  0  0  0
  -13.1287   14.1499   10.9945 C   0  0  0  0  0  0  0  0  0  0  0  0
  -13.9389   13.2290   11.7209 C   0  0  0  0  0  0  0  0  0  0  0  0
  -15.4079   13.0938   11.6143 C   0  0  0  0  0  0  0  0  0  0  0  0
  -16.4725   11.9981   11.9719 C   0  0  0  0  0  0  0  0  0  0  0  0
  -17.8175   12.2228   11.6177 C   0  0  0  0  0  0  0  0  0  0  0  0
  -18.7381   11.1652   11.3936 N   0  0  0  0  0  0  0  0  0  0  0  0
  -18.1490   13.5047   11.2119 C   0  0  0  0  0  0  0  0  0  0  0  0
  -17.2641   14.4795   11.0142 N   0  0  0  0  0  0  0  0  0  0  0  0
  -15.9499   14.2801   11.0646 N   0  3  0  0  0  0  0  0  0  0  0  0
  -15.1753   15.2969   10.5397 N   0  3  0  0  0  0  0  0  0  0  0  0
  -13.8429   15.1551   10.3067 C   0  0  0  0  0  0  0  0  0  0  0  0
  -13.2258   16.0611    9.2696 C   0  0  0  0  0  0  0  0  0  0  0  0
  -15.9503   16.7978   10.1542 Cl  0  0  0  0  0  0  0  0  0  0  0  0
  -16.2144   10.5450   12.6928 N   0  3  0  0  0  0  0  0  0  0  0  0
  -17.2014    9.8564   13.4618 N   0  3  0  0  0  0  0  0  0  0  0  0
  -18.5189   10.6922   14.2150 Cl  0  0  0  0  0  0  0  0  0  0  0  0
  -17.0121    8.5551   13.9377 C   0  0  0  0  0  0  0  0  0  0  0  0
  -15.7691    7.8617   13.9087 C   0  0  0  0  0  0  0  0  0  0  0  0
  -14.7510    8.5818   13.3073 C   0  0  0  0  0  0  0  0  0  0  0  0
  -15.0115    9.8587   12.6127 C   0  0  0  0  0  0  0  0  0  0  0  0
  -13.9878   10.3865   11.8426 N   0  0  0  0  0  0  0  0  0  0  0  0
  -13.5196    8.0668   13.3936 N   0  0  0  0  0  0  0  0  0  0  0  0
  -13.1663    6.9327   14.0434 N   0  3  0  0  0  0  0  0  0  0  0  0
  -14.1133    6.0884   14.5793 C   0  0  0  0  0  0  0  0  0  0  0  0
  -15.4483    6.5651   14.4525 N   0  3  0  0  0  0  0  0  0  0  0  0
  -16.4670    5.7221   14.8327 N   0  0  0  0  0  0  0  0  0  0  0  0
  -16.2228    4.4721   15.3144 N   0  3  0  0  0  0  0  0  0  0  0  0
  -17.3607    3.5273   15.6092 C   0  0  0  0  0  0  0  0  0  0  0  0
  -14.9635    4.0716   15.5384 C   0  0  0  0  0  0  0  0  0  0  0  0
  -13.9256    4.8669   15.1985 N   0  3  0  0  0  0  0  0  0  0  0  0
  -12.3939    4.2259   15.6386 Cl  0  0  0  0  0  0  0  0  0  0  0  0
  -11.4746    6.6629   14.0563 Cl  0  0  0  0  0  0  0  0  0  0  0  0
   -4.0636   10.4126   10.3790 C   0  0  3  0  0  0  0  0  0  0  0  0
   -3.1085    9.2587   10.7854 C   0  0  0  0  0  0  0  0  0  0  0  0
   -2.6695    8.3916    9.6079 C   0  0  0  0  0  0  0  0  0  0  0  0
   -2.1787    9.1854    8.4363 C   0  0  0  0  0  0  0  0  0  0  0  0
   -2.5429   10.5132    8.2626 C   0  0  0  0  0  0  0  0  0  0  0  0
   -3.3310   11.3026    9.3129 C   0  0  3  0  0  0  0  0  0  0  0  0
   -4.2809   12.3318    8.6394 C   0  0  3  0  0  0  0  0  0  0  0  0
   -5.5257   11.7775    8.4874 F   0  0  0  0  0  0  0  0  0  0  0  0
   -3.8401   12.8755    7.2757 C   0  0  0  0  0  0  0  0  0  0  0  0
   -2.3433   12.6751    7.0622 C   0  0  3  0  0  0  0  0  0  0  0  0
   -2.1088   11.1762    7.0945 C   0  0  0  0  0  0  0  0  0  0  0  0
   -1.5037   10.4771    6.0086 C   0  0  0  0  0  0  0  0  0  0  0  0
   -1.0021    9.1608    6.2307 C   0  0  0  0  0  0  0  0  0  0  0  0
   -1.3701    8.5585    7.4636 C   0  0  0  0  0  0  0  0  0  0  0  0
   -0.1376    8.3795    5.2673 C   0  0  0  0  0  0  0  0  0  0  0  0
   -0.1506    6.9662    5.2306 C   0  0  0  0  0  0  0  0  0  0  0  0
    0.7270    6.2104    4.4105 C   0  0  0  0  0  0  0  0  0  0  0  0
    1.0337    4.7593    4.7852 C   0  0  3  0  0  0  0  0  0  0  0  0
    1.8460    4.7821    6.0965 C   0  0  0  0  0  0  0  0  0  0  0  0
    2.2780    3.5897    6.5491 C   0  0  0  0  0  0  0  0  0  0  0  0
    3.2658    2.9115    5.6097 C   0  0  3  0  0  0  0  0  0  0  0  0
    2.4805    2.6268    4.2932 C   0  0  3  0  0  0  0  0  0  0  0  0
    1.8303    3.9410    3.7017 C   0  0  3  0  0  0  0  0  0  0  0  0
    2.8697    4.8290    2.9860 C   0  0  0  0  0  0  0  0  0  0  0  0
    2.2518    6.0965    2.3878 C   0  0  3  0  0  0  0  0  0  0  0  0
    1.4813    6.8643    3.4318 C   0  0  0  0  0  0  0  0  0  0  0  0
    1.5262    8.2552    3.4539 C   0  0  0  0  0  0  0  0  0  0  0  0
    0.8115    8.9716    4.4166 C   0  0  0  0  0  0  0  0  0  0  0  0
    1.1385   10.2644    4.5424 F   0  0  0  0  0  0  0  0  0  0  0  0
    1.3371    5.7868    1.1952 C   0  0  0  0  0  0  0  0  0  0  0  0
    3.3320    1.8745    3.2657 C   0  0  0  0  0  0  0  0  0  0  0  0
    3.8681    1.6737    6.2711 C   0  0  0  0  0  0  0  0  0  0  0  0
   -1.5027   11.1585    4.6357 C   0  0  3  0  0  0  0  0  0  0  0  0
   -2.1712   12.5389    4.5801 C   0  0  0  0  0  0  0  0  0  0  0  0
   -1.8012   13.3480    5.8055 C   0  0  0  0  0  0  0  0  0  0  0  0
   -2.3596   10.1258    3.4365 Cl  0  0  0  0  0  0  0  0  0  0  0  0
  1  2  1  0  0  0  0
  2  3  1  0  0  0  0
  2  7  1  0  0  0  0
  3  4  1  0  0  0  0
  3 52  1  0  0  0  0
  4  5  1  0  0  0  0
  5  6  2  0  0  0  0
  5 12  1  0  0  0  0
  6  7  1  0  0  0  0
  6  9  1  0  0  0  0
  7  8  1  0  0  0  0
  9 10  2  0  0  0  0
 10 11  1  0  0  0  0
 10 18  1  0  0  0  0
 11 12  2  0  0  0  0
 11 14  1  0  0  0  0
 12 13  1  0  0  0  0
 14 15  1  0  0  0  0
 14 16  2  0  0  0  0
 16 17  1  0  0  0  0
 17 18  2  0  0  0  0
 17 20  1  0  0  0  0
 18 19  1  0  0  0  0
 20 21  2  0  0  0  0
 20 30  1  0  0  0  0
 21 22  1  0  0  0  0
 22 23  2  0  0  0  0
 22 28  1  0  0  0  0
 23 24  1  0  0  0  0
 23 33  1  0  0  0  0
 24 25  1  0  0  0  0
 24 26  2  0  0  0  0
 26 27  1  0  0  0  0
 27 28  2  0  0  0  0
 28 29  1  0  0  0  0
 29 30  2  0  0  0  0
 29 32  1  0  0  0  0
 30 31  1  0  0  0  0
 33 34  2  0  0  0  0
 33 39  1  0  0  0  0
 34 35  1  0  0  0  0
 34 36  1  0  0  0  0
 36 37  2  0  0  0  0
 37 38  1  0  0  0  0
 37 44  1  0  0  0  0
 38 39  2  0  0  0  0
 38 41  1  0  0  0  0
 39 40  1  0  0  0  0
 41 42  2  0  0  0  0
 42 43  1  0  0  0  0
 42 51  1  0  0  0  0
 43 44  2  0  0  0  0
 43 49  1  0  0  0  0
 44 45  1  0  0  0  0
 45 46  2  0  0  0  0
 46 47  1  0  0  0  0
 46 48  1  0  0  0  0
 48 49  2  0  0  0  0
 49 50  1  0  0  0  0
 52 53  1  0  0  0  0
 52 57  1  0  0  0  0
 53 54  1  0  0  0  0
 54 55  1  0  0  0  0
 55 56  2  0  0  0  0
 55 65  1  0  0  0  0
 56 57  1  0  0  0  0
 56 62  1  0  0  0  0
 57 58  1  0  0  0  0
 58 59  1  0  0  0  0
 58 60  1  0  0  0  0
 60 61  1  0  0  0  0
 61 62  1  0  0  0  0
 61 86  1  0  0  0  0
 62 63  2  0  0  0  0
 63 64  1  0  0  0  0
 63 84  1  0  0  0  0
 64 65  2  0  0  0  0
 64 66  1  0  0  0  0
 66 67  2  0  0  0  0
 66 79  1  0  0  0  0
 67 68  1  0  0  0  0
 68 69  1  0  0  0  0
 68 77  2  0  0  0  0
 69 70  1  0  0  0  0
 69 74  1  0  0  0  0
 70 71  2  0  0  0  0
 71 72  1  0  0  0  0
 72 73  1  0  0  0  0
 72 83  1  0  0  0  0
 73 74  1  0  0  0  0
 73 82  1  0  0  0  0
 74 75  1  0  0  0  0
 75 76  1  0  0  0  0
 76 77  1  0  0  0  0
 76 81  1  0  0  0  0
 77 78  1  0  0  0  0
 78 79  2  0  0  0  0
 79 80  1  0  0  0  0
 84 85  1  0  0  0  0
 84 87  1  0  0  0  0
 85 86  1  0  0  0  0
M  CHG  8  28   1  29   1  33   1  34   1  42   1  44   1  46   1  49   1
M  END
$$$$