
 OpenBabel10192022573D

 52 60  0  0  1  0  0  0  0  0999 V2000
    2.0723    1.1460    1.1303 O   0  0  0  0  0  0  0  0  0  0  0  0
    2.8150    0.6048    0.3220 C   0  0  0  0  0  0  0  0  0  0  0  0
    2.8915   -0.7364    0.2132 N   0  0  0  0  0  0  0  0  0  0  0  0
    3.5789   -1.4434   -0.8222 C   0  0  2  0  0  0  0  0  0  0  0  0
    4.2545   -2.4535   -0.2155 F   0  0  0  0  0  0  0  0  0  0  0  0
    4.4751   -0.5678   -1.6342 C   0  0  0  0  0  0  0  0  0  0  0  0
    4.5052    0.7993   -1.4354 C   0  0  0  0  0  0  0  0  0  0  0  0
    3.6238    1.3426   -0.4885 N   0  0  0  0  0  0  0  0  0  0  0  0
    5.3941    1.6058   -2.1800 C   0  0  0  0  0  0  0  0  0  0  0  0
    5.4882    2.9897   -1.9650 N   0  0  0  0  0  0  0  0  0  0  0  0
    6.4284    3.7085   -2.6769 C   0  0  0  0  0  0  0  0  0  0  0  0
    7.1267    3.1120   -3.6731 C   0  0  0  0  0  0  0  0  0  0  0  0
    6.9315    1.7847   -4.0352 O   0  0  0  0  0  0  0  0  0  0  0  0
    6.1213    1.0189   -3.1680 N   0  3  0  0  0  0  0  0  0  0  0  0
    6.0827   -0.2968   -3.4002 N   0  0  0  0  0  0  0  0  0  0  0  0
    5.2881   -1.0530   -2.6263 C   0  0  0  0  0  0  0  0  0  0  0  0
    5.2876   -2.3853   -2.9056 O   0  0  0  0  0  0  0  0  0  0  0  0
    8.1474    3.7839   -4.5221 C   0  0  0  0  0  0  0  0  0  0  0  0
    7.6323    4.3477   -5.6445 N   0  0  0  0  0  0  0  0  0  0  0  0
    8.4802    5.0595   -6.4319 C   0  0  0  0  0  0  0  0  0  0  0  0
    9.8082    5.2904   -6.1215 C   0  0  0  0  0  0  0  0  0  0  0  0
   10.3506    4.7201   -4.9675 C   0  0  0  0  0  0  0  0  0  0  0  0
    9.5287    3.8674   -4.1933 C   0  0  0  0  0  0  0  0  0  0  0  0
   10.1573    3.1431   -3.1625 C   0  0  0  0  0  0  0  0  0  0  0  0
    9.4783    2.1178   -2.6209 F   0  0  0  0  0  0  0  0  0  0  0  0
   11.4810    3.3997   -2.7724 C   0  0  0  0  0  0  0  0  0  0  0  0
   12.2382    4.3508   -3.4450 C   0  0  0  0  0  0  0  0  0  0  0  0
   11.6858    4.9697   -4.5705 C   0  0  0  0  0  0  0  0  0  0  0  0
   13.5092    4.7328   -3.1185 O   0  0  0  0  0  0  0  0  0  0  0  0
   14.1119    4.1905   -1.9379 C   0  0  2  0  0  0  0  0  0  0  0  0
   13.5554    2.8844   -1.4275 C   0  0  0  0  0  0  0  0  0  0  0  0
   14.1486    2.0952   -0.7053 O   0  0  0  0  0  0  0  0  0  0  0  0
   12.0848    2.6907   -1.6491 C   0  0  0  0  0  0  0  0  0  0  0  0
   11.4090    1.9566   -0.8213 N   0  0  0  0  0  0  0  0  0  0  0  0
   14.1584    5.2285   -0.8589 C   0  0  1  0  0  0  0  0  0  0  0  0
   12.8637    5.6606   -0.4027 O   0  0  0  0  0  0  0  0  0  0  0  0
   13.6617    5.0582    0.4827 C   0  0  0  0  0  0  0  0  0  0  0  0
   14.0636    5.4224    1.5760 O   0  0  0  0  0  0  0  0  0  0  0  0
   10.5678    6.0253   -6.9460 F   0  0  0  0  0  0  0  0  0  0  0  0
    6.6815    5.0203   -2.3236 O   0  0  0  0  0  0  0  0  0  0  0  0
    5.6624    5.8401   -1.7235 C   0  0  1  0  0  0  0  0  0  0  0  0
    4.3609    5.6573   -2.2841 O   0  0  0  0  0  0  0  0  0  0  0  0
    3.3403    6.5419   -1.7948 C   0  0  1  0  0  0  0  0  0  0  0  0
    2.0465    5.7915   -1.6277 C   0  0  0  0  0  0  0  0  0  0  0  0
    2.1022    4.7184   -0.6794 O   0  0  0  0  0  0  0  0  0  0  0  0
    2.0121    4.4426   -2.0947 O   0  0  0  0  0  0  0  0  0  0  0  0
    3.5913    7.3200   -0.5004 C   0  0  0  0  0  0  0  0  0  0  0  0
    2.9986    8.3376   -0.1828 O   0  0  0  0  0  0  0  0  0  0  0  0
    4.6296    6.6817    0.3951 C   0  0  0  0  0  0  0  0  0  0  0  0
    4.7578    6.9999    1.5620 O   0  0  0  0  0  0  0  0  0  0  0  0
    5.5061    5.6234   -0.2252 C   0  0  0  0  0  0  0  0  0  0  0  0
    5.8377    4.6123    0.3779 O   0  0  0  0  0  0  0  0  0  0  0  0
  1  2  2  0  0  0  0
  2  3  1  0  0  0  0
  2  8  1  0  0  0  0
  3  4  1  0  0  0  0
  4  5  1  1  0  0  0
  4  6  1  0  0  0  0
  6  7  2  0  0  0  0
  6 16  1  0  0  0  0
  7  8  1  0  0  0  0
  7  9  1  0  0  0  0
  9 10  1  0  0  0  0
  9 14  2  0  0  0  0
 10 11  1  0  0  0  0
 11 12  2  0  0  0  0
 11 40  1  0  0  0  0
 12 13  1  0  0  0  0
 12 18  1  0  0  0  0
 13 14  1  0  0  0  0
 14 15  1  0  0  0  0
 15 16  2  0  0  0  0
 16 17  1  0  0  0  0
 18 19  2  0  0  0  0
 18 23  1  0  0  0  0
 19 20  1  0  0  0  0
 20 21  2  0  0  0  0
 21 22  1  0  0  0  0
 21 39  1  0  0  0  0
 22 23  2  0  0  0  0
 22 28  1  0  0  0  0
 23 24  1  0  0  0  0
 24 25  1  0  0  0  0
 24 26  2  0  0  0  0
 26 27  1  0  0  0  0
 26 33  1  0  0  0  0
 27 28  2  0  0  0  0
 27 29  1  0  0  0  0
 30 29  1  6  0  0  0
 30 31  1  0  0  0  0
 30 35  1  0  0  0  0
 31 32  2  0  0  0  0
 31 33  1  0  0  0  0
 33 34  2  0  0  0  0
 35 36  1  6  0  0  0
 35 37  1  0  0  0  0
 36 37  1  0  0  0  0
 37 38  2  0  0  0  0
 41 40  1  6  0  0  0
 41 42  1  0  0  0  0
 41 51  1  0  0  0  0
 42 43  1  0  0  0  0
 43 47  1  0  0  0  0
 43 44  1  1  0  0  0
 44 45  1  0  0  0  0
 44 46  1  0  0  0  0
 45 46  1  0  0  0  0
 47 48  2  0  0  0  0
 47 49  1  0  0  0  0
 49 50  2  0  0  0  0
 49 51  1  0  0  0  0
 51 52  2  0  0  0  0
M  CHG  1  14   1
M  END
$$$$