
 OpenBabel11212016043D

 54 62  0  0  1  0  0  0  0  0999 V2000
    5.9842   -2.7563   -0.9225 O   0  0  0  0  0  0  0  0  0  0  0  0
    5.5751   -1.4736   -1.1875 C   0  0  0  0  0  0  0  0  0  0  0  0
    4.5466   -1.1861   -1.9943 C   0  0  0  0  0  0  0  0  0  0  0  0
    3.8578   -2.1852   -2.6613 O   0  0  0  0  0  0  0  0  0  0  0  0
    2.4475   -2.0046   -2.6377 C   0  0  2  0  0  0  0  0  0  0  0  0
    1.7888   -3.1841   -3.1679 O   0  0  0  0  0  0  0  0  0  0  0  0
    2.1088   -3.6578   -4.4390 C   0  0  0  0  0  0  0  0  0  0  0  0
    1.9729   -4.9670   -4.7780 C   0  0  0  0  0  0  0  0  0  0  0  0
    2.1714   -5.4035   -6.1012 O   0  0  0  0  0  0  0  0  0  0  0  0
    2.4357   -4.4925   -7.1265 C   0  0  0  0  0  0  0  0  0  0  0  0
    2.6711   -3.2014   -6.8474 C   0  0  0  0  0  0  0  0  0  0  0  0
    2.5715   -2.6564   -5.4637 C   0  0  0  0  0  0  0  0  0  0  0  0
    3.0544   -2.2035   -7.9001 C   0  0  3  0  0  0  0  0  0  0  0  0
    4.3858   -1.8088   -7.6214 O   0  0  0  0  0  0  0  0  0  0  0  0
    4.9700   -0.9345   -8.4845 C   0  0  0  0  0  0  0  0  0  0  0  0
    5.9825   -0.3272   -8.1791 O   0  0  0  0  0  0  0  0  0  0  0  0
    4.3588   -0.7916   -9.6849 O   0  0  0  0  0  0  0  0  0  0  0  0
    3.4827   -1.7713  -10.2344 C   0  0  3  0  0  0  0  0  0  0  0  0
    3.0804   -2.8064   -9.2465 C   0  0  0  0  0  0  0  0  0  0  0  0
    2.7907   -4.1059   -9.4795 C   0  0  0  0  0  0  0  0  0  0  0  0
    2.4765   -4.9578   -8.4257 O   0  3  0  0  0  0  0  0  0  0  0  0
    2.8101   -4.7138  -10.8292 C   0  0  0  0  0  0  0  0  0  0  0  0
    4.0047   -5.3094  -11.3499 O   0  0  0  0  0  0  0  0  0  0  0  0
    2.8857   -6.1405  -10.9847 O   0  0  0  0  0  0  0  0  0  0  0  0
    2.2724   -1.1433  -10.6066 O   0  0  0  0  0  0  0  0  0  0  0  0
    1.6674   -6.0711   -3.7973 C   0  0  0  0  0  0  0  0  0  0  0  0
    2.1334   -5.9374   -2.4874 C   0  0  0  0  0  0  0  0  0  0  0  0
    1.9080   -6.8709   -1.5606 N   0  3  0  0  0  0  0  0  0  0  0  0
    2.3292   -6.6576   -0.2997 F   0  0  0  0  0  0  0  0  0  0  0  0
    1.3029   -8.0011   -1.8296 N   0  0  0  0  0  0  0  0  0  0  0  0
    0.8774   -8.2471   -3.0676 C   0  0  0  0  0  0  0  0  0  0  0  0
    1.0168   -7.2992   -4.1083 C   0  0  0  0  0  0  0  0  0  0  0  0
    0.4987   -7.6589   -5.3778 C   0  0  0  0  0  0  0  0  0  0  0  0
   -0.0834   -8.9127   -5.6139 C   0  0  0  0  0  0  0  0  0  0  0  0
   -0.5652   -9.2526   -6.9526 C   0  0  0  0  0  0  0  0  0  0  0  0
   -0.3175   -8.5179   -7.8978 O   0  0  0  0  0  0  0  0  0  0  0  0
   -1.3222  -10.5566   -7.0835 C   0  0  0  0  0  0  0  0  0  0  0  0
   -1.4504  -11.0807   -8.1785 O   0  0  0  0  0  0  0  0  0  0  0  0
   -1.8458  -11.1082   -5.7716 C   0  0  1  0  0  0  0  0  0  0  0  0
   -0.8690  -11.0250   -4.7083 O   0  0  0  0  0  0  0  0  0  0  0  0
   -0.2183   -9.8278   -4.5900 C   0  0  0  0  0  0  0  0  0  0  0  0
    0.2756   -9.4842   -3.3324 C   0  0  0  0  0  0  0  0  0  0  0  0
    0.1418  -10.3793   -2.2961 O   0  0  0  0  0  0  0  0  0  0  0  0
   -3.1885  -10.5221   -5.3927 C   0  0  1  0  0  0  0  0  0  0  0  0
   -4.2532  -10.7260   -6.3351 O   0  0  0  0  0  0  0  0  0  0  0  0
   -3.5592  -10.6731   -4.0101 O   0  0  0  0  0  0  0  0  0  0  0  0
   -3.3842   -9.4252   -4.4608 C   0  0  0  0  0  0  0  0  0  0  0  0
   -2.6563   -8.5118   -4.0964 O   0  0  0  0  0  0  0  0  0  0  0  0
    1.9581   -0.6673   -3.2009 C   0  0  0  0  0  0  0  0  0  0  0  0
    0.8790   -0.5017   -3.7508 O   0  0  0  0  0  0  0  0  0  0  0  0
    2.9451    0.4619   -3.0234 C   0  0  0  0  0  0  0  0  0  0  0  0
    2.7683    1.5169   -3.6088 O   0  0  0  0  0  0  0  0  0  0  0  0
    4.1684    0.2470   -2.1595 C   0  0  0  0  0  0  0  0  0  0  0  0
    4.7443    1.1734   -1.6191 O   0  0  0  0  0  0  0  0  0  0  0  0
  1  2  1  0  0  0  0
  2  3  2  0  0  0  0
  3  4  1  0  0  0  0
  3 53  1  0  0  0  0
  4  5  1  0  0  0  0
  5  6  1  6  0  0  0
  5 49  1  0  0  0  0
  6  7  1  0  0  0  0
  7  8  2  0  0  0  0
  7 12  1  0  0  0  0
  8  9  1  0  0  0  0
  8 26  1  0  0  0  0
  9 10  1  0  0  0  0
 10 11  2  0  0  0  0
 10 21  1  0  0  0  0
 11 12  1  0  0  0  0
 11 13  1  0  0  0  0
 13 14  1  0  0  0  0
 13 19  1  0  0  0  0
 14 15  1  0  0  0  0
 15 16  2  0  0  0  0
 15 17  1  0  0  0  0
 17 18  1  0  0  0  0
 18 19  1  0  0  0  0
 18 25  1  0  0  0  0
 19 20  2  0  0  0  0
 20 21  1  0  0  0  0
 20 22  1  0  0  0  0
 22 23  1  0  0  0  0
 22 24  1  0  0  0  0
 23 24  1  0  0  0  0
 26 27  2  0  0  0  0
 26 32  1  0  0  0  0
 27 28  1  0  0  0  0
 28 29  1  0  0  0  0
 28 30  2  0  0  0  0
 30 31  1  0  0  0  0
 31 32  2  0  0  0  0
 31 42  1  0  0  0  0
 32 33  1  0  0  0  0
 33 34  2  0  0  0  0
 34 35  1  0  0  0  0
 34 41  1  0  0  0  0
 35 36  2  0  0  0  0
 35 37  1  0  0  0  0
 37 38  2  0  0  0  0
 39 37  1  6  0  0  0
 39 40  1  0  0  0  0
 39 44  1  0  0  0  0
 40 41  1  0  0  0  0
 41 42  2  0  0  0  0
 42 43  1  0  0  0  0
 44 45  1  6  0  0  0
 44 46  1  0  0  0  0
 44 47  1  0  0  0  0
 46 47  1  0  0  0  0
 47 48  2  0  0  0  0
 49 50  2  0  0  0  0
 49 51  1  0  0  0  0
 51 52  2  0  0  0  0
 51 53  1  0  0  0  0
 53 54  2  0  0  0  0
M  CHG  2  21   1  28   1
M  END
$$$$