
 OpenBabel11222002323D

 54 63  0  0  1  0  0  0  0  0999 V2000
    3.8025    1.9565   -3.7940 O   0  0  0  0  0  0  0  0  0  0  0  0
    2.5096    2.0364   -3.3413 C   0  0  0  0  0  0  0  0  0  0  0  0
    1.7810    0.9509   -3.0461 C   0  0  0  0  0  0  0  0  0  0  0  0
    2.3417   -0.3029   -3.1810 O   0  0  0  0  0  0  0  0  0  0  0  0
    1.6164   -1.4644   -2.8016 C   0  0  2  0  0  0  0  0  0  0  0  0
    2.1518   -2.6596   -3.4165 O   0  0  0  0  0  0  0  0  0  0  0  0
    2.1945   -2.7636   -4.8012 C   0  0  0  0  0  0  0  0  0  0  0  0
    2.0922   -3.9597   -5.4199 C   0  0  0  0  0  0  0  0  0  0  0  0
    2.1753   -4.1135   -6.8060 O   0  0  0  0  0  0  0  0  0  0  0  0
    2.5213   -3.0225   -7.5979 C   0  0  0  0  0  0  0  0  0  0  0  0
    2.7028   -1.8029   -7.0635 C   0  0  0  0  0  0  0  0  0  0  0  0
    2.4784   -1.5301   -5.6095 C   0  0  0  0  0  0  0  0  0  0  0  0
    3.1511   -0.6268   -7.8773 C   0  0  3  0  0  0  0  0  0  0  0  0
    4.4482   -0.2762   -7.4264 O   0  0  0  0  0  0  0  0  0  0  0  0
    5.1014    0.7260   -8.0681 C   0  0  0  0  0  0  0  0  0  0  0  0
    6.0660    1.2837   -7.5702 O   0  0  0  0  0  0  0  0  0  0  0  0
    4.6313    1.0537   -9.2961 O   0  0  0  0  0  0  0  0  0  0  0  0
    3.7411    0.2380  -10.0499 C   0  0  3  0  0  0  0  0  0  0  0  0
    3.2880   -0.9670   -9.3090 C   0  0  0  0  0  0  0  0  0  0  0  0
    3.0502   -2.2053   -9.7987 C   0  0  0  0  0  0  0  0  0  0  0  0
    2.6821   -3.2394   -8.9460 O   0  3  0  0  0  0  0  0  0  0  0  0
    3.1830   -2.5539  -11.2312 C   0  0  0  0  0  0  0  0  0  0  0  0
    4.4248   -3.0336  -11.7606 O   0  0  0  0  0  0  0  0  0  0  0  0
    3.2987   -3.9254  -11.6447 O   0  0  0  0  0  0  0  0  0  0  0  0
    2.5662    0.9795  -10.3134 O   0  0  0  0  0  0  0  0  0  0  0  0
    1.8875   -5.2301   -4.6947 C   0  0  0  0  0  0  0  0  0  0  0  0
    0.5742   -5.6365   -4.4608 C   0  0  0  0  0  0  0  0  0  0  0  0
    0.3710   -6.8355   -3.8161 C   0  0  0  0  0  0  0  0  0  0  0  0
   -0.8879   -7.2409   -3.6033 F   0  0  0  0  0  0  0  0  0  0  0  0
    1.3596   -7.6486   -3.4098 N   0  0  0  0  0  0  0  0  0  0  0  0
    2.6350   -7.2665   -3.6111 C   0  0  0  0  0  0  0  0  0  0  0  0
    2.9640   -6.0493   -4.2522 C   0  0  0  0  0  0  0  0  0  0  0  0
    4.3344   -5.7143   -4.4065 C   0  0  0  0  0  0  0  0  0  0  0  0
    5.3777   -6.5482   -3.9676 C   0  0  0  0  0  0  0  0  0  0  0  0
    6.8819   -6.1745   -4.0561 C   0  0  3  0  0  0  0  0  0  0  0  0
    7.4133   -6.0661   -5.4000 O   0  0  0  0  0  0  0  0  0  0  0  0
    8.5131   -6.9841   -5.0501 O   0  0  0  0  0  0  0  0  0  0  0  0
    7.8610   -7.3129   -3.7976 C   0  0  3  0  0  0  0  0  0  0  0  0
    7.2026   -8.6936   -3.7734 C   0  0  1  0  0  0  0  0  0  0  0  0
    5.9745   -8.6718   -2.9905 O   0  0  0  0  0  0  0  0  0  0  0  0
    5.0112   -7.7672   -3.3933 C   0  0  0  0  0  0  0  0  0  0  0  0
    3.6663   -8.1312   -3.2077 C   0  0  0  0  0  0  0  0  0  0  0  0
    3.3635   -9.2847   -2.4425 N   0  0  0  0  0  0  0  0  0  0  0  0
    7.0217   -9.3627   -5.1137 C   0  0  1  0  0  0  0  0  0  0  0  0
    8.2413   -9.6343   -5.8473 O   0  0  0  0  0  0  0  0  0  0  0  0
    6.0889  -10.4615   -5.1032 O   0  0  0  0  0  0  0  0  0  0  0  0
    5.7904   -9.4137   -5.8779 C   0  0  0  0  0  0  0  0  0  0  0  0
    5.5719   -9.3314   -7.0735 O   0  0  0  0  0  0  0  0  0  0  0  0
    0.1055   -1.3793   -2.9624 C   0  0  0  0  0  0  0  0  0  0  0  0
   -0.6197   -2.2170   -3.4780 O   0  0  0  0  0  0  0  0  0  0  0  0
   -0.4426   -0.0824   -2.4455 C   0  0  0  0  0  0  0  0  0  0  0  0
   -1.5123   -0.0600   -1.8615 O   0  0  0  0  0  0  0  0  0  0  0  0
    0.3594    1.1770   -2.6628 C   0  0  0  0  0  0  0  0  0  0  0  0
   -0.1591    2.2790   -2.5888 O   0  0  0  0  0  0  0  0  0  0  0  0
  1  2  1  0  0  0  0
  2  3  2  0  0  0  0
  3  4  1  0  0  0  0
  3 53  1  0  0  0  0
  4  5  1  0  0  0  0
  5  6  1  6  0  0  0
  5 49  1  0  0  0  0
  6  7  1  0  0  0  0
  7  8  2  0  0  0  0
  7 12  1  0  0  0  0
  8  9  1  0  0  0  0
  8 26  1  0  0  0  0
  9 10  1  0  0  0  0
 10 11  2  0  0  0  0
 10 21  1  0  0  0  0
 11 12  1  0  0  0  0
 11 13  1  0  0  0  0
 13 14  1  0  0  0  0
 13 19  1  0  0  0  0
 14 15  1  0  0  0  0
 15 16  2  0  0  0  0
 15 17  1  0  0  0  0
 17 18  1  0  0  0  0
 18 19  1  0  0  0  0
 18 25  1  0  0  0  0
 19 20  2  0  0  0  0
 20 21  1  0  0  0  0
 20 22  1  0  0  0  0
 22 23  1  0  0  0  0
 22 24  1  0  0  0  0
 23 24  1  0  0  0  0
 26 27  2  0  0  0  0
 26 32  1  0  0  0  0
 27 28  1  0  0  0  0
 28 29  1  0  0  0  0
 28 30  2  0  0  0  0
 30 31  1  0  0  0  0
 31 32  2  0  0  0  0
 31 42  1  0  0  0  0
 32 33  1  0  0  0  0
 33 34  2  0  0  0  0
 34 35  1  0  0  0  0
 34 41  1  0  0  0  0
 35 36  1  0  0  0  0
 35 38  1  0  0  0  0
 36 37  1  0  0  0  0
 37 38  1  0  0  0  0
 38 39  1  0  0  0  0
 39 40  1  6  0  0  0
 39 44  1  0  0  0  0
 40 41  1  0  0  0  0
 41 42  2  0  0  0  0
 42 43  1  0  0  0  0
 44 45  1  6  0  0  0
 44 46  1  0  0  0  0
 44 47  1  0  0  0  0
 46 47  1  0  0  0  0
 47 48  2  0  0  0  0
 49 50  2  0  0  0  0
 49 51  1  0  0  0  0
 51 52  2  0  0  0  0
 51 53  1  0  0  0  0
 53 54  2  0  0  0  0
M  CHG  1  21   1
M  END
$$$$