
 OpenBabel11272020473D

 54 62  0  0  1  0  0  0  0  0999 V2000
    4.0829    4.4475   -2.4512 O   0  0  0  0  0  0  0  0  0  0  0  0
    4.4637    3.3163   -1.7710 C   0  0  0  0  0  0  0  0  0  0  0  0
    4.0993    2.0831   -2.1408 C   0  0  0  0  0  0  0  0  0  0  0  0
    3.2578    1.8699   -3.2148 O   0  0  0  0  0  0  0  0  0  0  0  0
    3.7623    0.8840   -4.1092 C   0  0  2  0  0  0  0  0  0  0  0  0
    2.8650    0.6959   -5.2160 O   0  0  0  0  0  0  0  0  0  0  0  0
    2.7810    1.6999   -6.1658 C   0  0  0  0  0  0  0  0  0  0  0  0
    2.5364    1.3941   -7.4544 C   0  0  0  0  0  0  0  0  0  0  0  0
    2.3642    2.3497   -8.4477 O   0  0  0  0  0  0  0  0  0  0  0  0
    2.3744    3.6963   -8.1110 C   0  0  0  0  0  0  0  0  0  0  0  0
    2.6008    4.1098   -6.8481 C   0  0  0  0  0  0  0  0  0  0  0  0
    2.8579    3.1391   -5.7263 C   0  0  0  0  0  0  0  0  0  0  0  0
    2.6057    5.5702   -6.4822 C   0  0  3  0  0  0  0  0  0  0  0  0
    3.8623    5.8842   -5.9142 O   0  0  0  0  0  0  0  0  0  0  0  0
    4.0497    7.1831   -5.6039 C   0  0  0  0  0  0  0  0  0  0  0  0
    4.9287    7.4960   -4.7299 N   0  0  0  0  0  0  0  0  0  0  0  0
    3.3127    8.1247   -6.2295 O   0  0  0  0  0  0  0  0  0  0  0  0
    2.6035    7.8400   -7.3375 C   0  0  0  0  0  0  0  0  0  0  0  0
    2.0523    8.6924   -8.0192 O   0  0  0  0  0  0  0  0  0  0  0  0
    2.4534    6.4245   -7.6730 C   0  0  0  0  0  0  0  0  0  0  0  0
    2.2235    5.9561   -8.9194 C   0  0  0  0  0  0  0  0  0  0  0  0
    2.1446    4.5876   -9.1316 O   0  3  0  0  0  0  0  0  0  0  0  0
    2.1067    6.7897  -10.1422 C   0  0  0  0  0  0  0  0  0  0  0  0
    3.2490    7.0329  -10.9725 O   0  0  0  0  0  0  0  0  0  0  0  0
    2.1949    6.1725  -11.4417 O   0  0  0  0  0  0  0  0  0  0  0  0
    2.4096    0.0055   -7.9348 C   0  0  0  0  0  0  0  0  0  0  0  0
    1.1461   -0.5815   -7.8976 C   0  0  0  0  0  0  0  0  0  0  0  0
    1.0134   -1.8633   -8.3797 C   0  0  0  0  0  0  0  0  0  0  0  0
   -0.2000   -2.4297   -8.3532 F   0  0  0  0  0  0  0  0  0  0  0  0
    2.0259   -2.5771   -8.9006 N   0  0  0  0  0  0  0  0  0  0  0  0
    3.2612   -2.0454   -8.9084 C   0  0  0  0  0  0  0  0  0  0  0  0
    3.5131   -0.7416   -8.4217 C   0  0  0  0  0  0  0  0  0  0  0  0
    4.8403   -0.2566   -8.4288 C   0  0  0  0  0  0  0  0  0  0  0  0
    5.8942   -1.0426   -8.9081 C   0  0  0  0  0  0  0  0  0  0  0  0
    7.2694   -0.5448   -8.8177 C   0  0  0  0  0  0  0  0  0  0  0  0
    7.5127    0.5784   -8.4042 O   0  0  0  0  0  0  0  0  0  0  0  0
    8.3567   -1.5080   -9.2298 C   0  0  0  0  0  0  0  0  0  0  0  0
    9.4943   -1.3907   -8.8001 O   0  0  0  0  0  0  0  0  0  0  0  0
    7.9012   -2.5540  -10.2207 C   0  0  1  0  0  0  0  0  0  0  0  0
    6.6117   -3.1177   -9.9588 O   0  0  0  0  0  0  0  0  0  0  0  0
    5.6518   -2.2993   -9.4322 C   0  0  0  0  0  0  0  0  0  0  0  0
    4.3396   -2.7832   -9.4120 C   0  0  0  0  0  0  0  0  0  0  0  0
    4.1129   -4.0129   -9.9061 F   0  0  0  0  0  0  0  0  0  0  0  0
    7.9561   -2.0100  -11.6116 C   0  0  1  0  0  0  0  0  0  0  0  0
    7.1641   -0.8223  -11.8773 O   0  0  0  0  0  0  0  0  0  0  0  0
    9.2474   -2.0382  -12.2101 O   0  0  0  0  0  0  0  0  0  0  0  0
    8.3020   -2.8057  -12.7905 C   0  0  0  0  0  0  0  0  0  0  0  0
    7.8470   -2.7377  -13.9137 O   0  0  0  0  0  0  0  0  0  0  0  0
    3.9350   -0.4812   -3.4520 C   0  0  0  0  0  0  0  0  0  0  0  0
    3.9857   -1.5464   -4.0509 O   0  0  0  0  0  0  0  0  0  0  0  0
    4.1459   -0.4048   -1.9569 C   0  0  0  0  0  0  0  0  0  0  0  0
    3.9321   -1.3701   -1.2442 O   0  0  0  0  0  0  0  0  0  0  0  0
    4.5954    0.9145   -1.3650 C   0  0  0  0  0  0  0  0  0  0  0  0
    5.3358    0.9852   -0.4020 O   0  0  0  0  0  0  0  0  0  0  0  0
  1  2  1  0  0  0  0
  2  3  2  0  0  0  0
  3  4  1  0  0  0  0
  3 53  1  0  0  0  0
  4  5  1  0  0  0  0
  5  6  1  6  0  0  0
  5 49  1  0  0  0  0
  6  7  1  0  0  0  0
  7  8  2  0  0  0  0
  7 12  1  0  0  0  0
  8  9  1  0  0  0  0
  8 26  1  0  0  0  0
  9 10  1  0  0  0  0
 10 11  2  0  0  0  0
 10 22  1  0  0  0  0
 11 12  1  0  0  0  0
 11 13  1  0  0  0  0
 13 14  1  0  0  0  0
 13 20  1  0  0  0  0
 14 15  1  0  0  0  0
 15 16  2  0  0  0  0
 15 17  1  0  0  0  0
 17 18  1  0  0  0  0
 18 19  2  0  0  0  0
 18 20  1  0  0  0  0
 20 21  2  0  0  0  0
 21 22  1  0  0  0  0
 21 23  1  0  0  0  0
 23 24  1  0  0  0  0
 23 25  1  0  0  0  0
 24 25  1  0  0  0  0
 26 27  2  0  0  0  0
 26 32  1  0  0  0  0
 27 28  1  0  0  0  0
 28 29  1  0  0  0  0
 28 30  2  0  0  0  0
 30 31  1  0  0  0  0
 31 32  2  0  0  0  0
 31 42  1  0  0  0  0
 32 33  1  0  0  0  0
 33 34  2  0  0  0  0
 34 35  1  0  0  0  0
 34 41  1  0  0  0  0
 35 36  2  0  0  0  0
 35 37  1  0  0  0  0
 37 38  2  0  0  0  0
 39 37  1  1  0  0  0
 39 40  1  0  0  0  0
 39 44  1  0  0  0  0
 40 41  1  0  0  0  0
 41 42  2  0  0  0  0
 42 43  1  0  0  0  0
 44 45  1  6  0  0  0
 44 46  1  0  0  0  0
 44 47  1  0  0  0  0
 46 47  1  0  0  0  0
 47 48  2  0  0  0  0
 49 50  2  0  0  0  0
 49 51  1  0  0  0  0
 51 52  2  0  0  0  0
 51 53  1  0  0  0  0
 53 54  2  0  0  0  0
M  CHG  1  22   1
M  END
$$$$