
 OpenBabel09262021573D

 53 61  0  0  1  0  0  0  0  0999 V2000
    6.3155    3.4320   -6.9086 O   0  0  0  0  0  0  0  0  0  0  0  0
    5.8630    2.1394   -6.9730 C   0  0  0  0  0  0  0  0  0  0  0  0
    4.9315    1.6556   -6.1420 C   0  0  0  0  0  0  0  0  0  0  0  0
    4.4019    2.4434   -5.1348 O   0  0  0  0  0  0  0  0  0  0  0  0
    3.0271    2.1947   -4.8459 C   0  0  2  0  0  0  0  0  0  0  0  0
    2.5185    3.0781   -3.8355 O   0  0  0  0  0  0  0  0  0  0  0  0
    2.6068    4.4412   -4.0869 C   0  0  0  0  0  0  0  0  0  0  0  0
    2.7586    5.3245   -3.0762 C   0  0  0  0  0  0  0  0  0  0  0  0
    2.8421    6.6994   -3.2692 O   0  0  0  0  0  0  0  0  0  0  0  0
    2.6103    7.2201   -4.5314 C   0  0  0  0  0  0  0  0  0  0  0  0
    2.3814    6.4259   -5.5891 C   0  0  0  0  0  0  0  0  0  0  0  0
    2.4346    4.9369   -5.5057 C   0  0  0  0  0  0  0  0  0  0  0  0
    2.0200    7.0758   -6.8804 C   0  0  0  0  0  0  0  0  0  0  0  0
    1.7593    6.3670   -7.9297 N   0  0  0  0  0  0  0  0  0  0  0  0
    1.3941    7.0057   -9.0998 C   0  0  0  0  0  0  0  0  0  0  0  0
    1.1785    6.3156  -10.0878 O   0  0  0  0  0  0  0  0  0  0  0  0
    1.2562    8.3761   -9.2116 N   0  0  0  0  0  0  0  0  0  0  0  0
    1.5126    9.1075   -8.1834 C   0  0  0  0  0  0  0  0  0  0  0  0
    1.9450    8.5546   -6.9016 C   0  0  0  0  0  0  0  0  0  0  0  0
    2.2496    9.2638   -5.7971 C   0  0  0  0  0  0  0  0  0  0  0  0
    2.5996    8.5866   -4.6398 N   0  0  0  0  0  0  0  0  0  0  0  0
    2.2249   10.7422   -5.7039 C   0  0  0  0  0  0  0  0  0  0  0  0
    1.0365   11.4495   -5.3206 O   0  0  0  0  0  0  0  0  0  0  0  0
    2.1746   11.4237   -4.4374 O   0  0  0  0  0  0  0  0  0  0  0  0
    2.8387    4.9325   -1.6573 C   0  0  0  0  0  0  0  0  0  0  0  0
    4.0931    4.6999   -1.2220 N   0  0  0  0  0  0  0  0  0  0  0  0
    4.2031    4.3632    0.0615 C   0  0  0  0  0  0  0  0  0  0  0  0
    3.1939    4.2437    0.9342 N   0  0  0  0  0  0  0  0  0  0  0  0
    1.9490    4.4902    0.5038 C   0  0  0  0  0  0  0  0  0  0  0  0
    1.6997    4.8556   -0.8299 C   0  0  0  0  0  0  0  0  0  0  0  0
    0.3705    5.1140   -1.2452 C   0  0  0  0  0  0  0  0  0  0  0  0
   -0.6893    5.0047   -0.3441 C   0  0  0  0  0  0  0  0  0  0  0  0
   -2.0692    5.2237   -0.7993 C   0  0  0  0  0  0  0  0  0  0  0  0
   -2.3389    5.4323   -1.9713 O   0  0  0  0  0  0  0  0  0  0  0  0
   -3.1489    5.2337    0.2588 C   0  0  0  0  0  0  0  0  0  0  0  0
   -4.3322    5.3173   -0.0387 O   0  0  0  0  0  0  0  0  0  0  0  0
   -2.6341    5.3300    1.6707 C   0  0  1  0  0  0  0  0  0  0  0  0
   -1.4484    4.5581    1.9087 O   0  0  0  0  0  0  0  0  0  0  0  0
   -0.4478    4.6704    0.9813 C   0  0  0  0  0  0  0  0  0  0  0  0
    0.8683    4.3879    1.4030 C   0  0  0  0  0  0  0  0  0  0  0  0
    1.1382    3.9919    2.8447 C   0  0  0  0  0  0  0  0  0  0  0  0
    1.5371    5.7153    4.0398 I   0  0  0  0  0  0  0  0  0  0  0  0
   -2.4608    6.7488    2.1294 C   0  0  1  0  0  0  0  0  0  0  0  0
   -1.9697    6.9192    3.4784 O   0  0  0  0  0  0  0  0  0  0  0  0
   -1.9304    7.6436    1.1541 O   0  0  0  0  0  0  0  0  0  0  0  0
   -3.1881    7.8987    1.5820 C   0  0  0  0  0  0  0  0  0  0  0  0
   -3.6130    8.8912    2.1302 O   0  0  0  0  0  0  0  0  0  0  0  0
    2.8724    0.7626   -4.3640 C   0  0  0  0  0  0  0  0  0  0  0  0
    2.3295    0.3867   -3.3359 O   0  0  0  0  0  0  0  0  0  0  0  0
    3.4504   -0.2260   -5.3428 C   0  0  0  0  0  0  0  0  0  0  0  0
    3.0207   -1.3684   -5.3859 O   0  0  0  0  0  0  0  0  0  0  0  0
    4.5208    0.2324   -6.3114 C   0  0  0  0  0  0  0  0  0  0  0  0
    4.9744   -0.5132   -7.1646 O   0  0  0  0  0  0  0  0  0  0  0  0
  1  2  1  0  0  0  0
  2  3  2  0  0  0  0
  3  4  1  0  0  0  0
  3 52  1  0  0  0  0
  4  5  1  0  0  0  0
  5  6  1  1  0  0  0
  5 48  1  0  0  0  0
  6  7  1  0  0  0  0
  7  8  2  0  0  0  0
  7 12  1  0  0  0  0
  8  9  1  0  0  0  0
  8 25  1  0  0  0  0
  9 10  1  0  0  0  0
 10 11  2  0  0  0  0
 10 21  1  0  0  0  0
 11 12  1  0  0  0  0
 11 13  1  0  0  0  0
 13 14  2  0  0  0  0
 13 19  1  0  0  0  0
 14 15  1  0  0  0  0
 15 16  2  0  0  0  0
 15 17  1  0  0  0  0
 17 18  2  0  0  0  0
 18 19  1  0  0  0  0
 19 20  2  0  0  0  0
 20 21  1  0  0  0  0
 20 22  1  0  0  0  0
 22 23  1  0  0  0  0
 22 24  1  0  0  0  0
 23 24  1  0  0  0  0
 25 26  2  0  0  0  0
 25 30  1  0  0  0  0
 26 27  1  0  0  0  0
 27 28  2  0  0  0  0
 28 29  1  0  0  0  0
 29 30  2  0  0  0  0
 29 40  1  0  0  0  0
 30 31  1  0  0  0  0
 31 32  2  0  0  0  0
 32 33  1  0  0  0  0
 32 39  1  0  0  0  0
 33 34  2  0  0  0  0
 33 35  1  0  0  0  0
 35 36  2  0  0  0  0
 37 35  1  6  0  0  0
 37 38  1  0  0  0  0
 37 43  1  0  0  0  0
 38 39  1  0  0  0  0
 39 40  2  0  0  0  0
 40 41  1  0  0  0  0
 41 42  1  0  0  0  0
 43 44  1  1  0  0  0
 43 45  1  0  0  0  0
 43 46  1  0  0  0  0
 45 46  1  0  0  0  0
 46 47  2  0  0  0  0
 48 49  2  0  0  0  0
 48 50  1  0  0  0  0
 50 51  2  0  0  0  0
 50 52  1  0  0  0  0
 52 53  2  0  0  0  0
M  END
$$$$