
 OpenBabel09252005593D

 53 61  0  0  1  0  0  0  0  0999 V2000
    0.3551   -4.3903    8.1493 O   0  0  0  0  0  0  0  0  0  0  0  0
   -0.4613   -3.4181    7.6306 C   0  0  0  0  0  0  0  0  0  0  0  0
   -0.1840   -2.7891    6.4833 C   0  0  0  0  0  0  0  0  0  0  0  0
    0.9769   -3.0803    5.7910 O   0  0  0  0  0  0  0  0  0  0  0  0
    0.8377   -3.0162    4.3731 C   0  0  2  0  0  0  0  0  0  0  0  0
    2.0288   -3.4621    3.7248 O   0  0  0  0  0  0  0  0  0  0  0  0
    2.4238   -4.7715    3.9772 C   0  0  0  0  0  0  0  0  0  0  0  0
    3.7248   -5.1221    3.8993 C   0  0  0  0  0  0  0  0  0  0  0  0
    4.1770   -6.4267    4.0539 O   0  0  0  0  0  0  0  0  0  0  0  0
    3.2530   -7.4570    4.0942 C   0  0  0  0  0  0  0  0  0  0  0  0
    1.9339   -7.2162    4.1628 C   0  0  0  0  0  0  0  0  0  0  0  0
    1.3700   -5.8344    4.2090 C   0  0  0  0  0  0  0  0  0  0  0  0
    1.0130   -8.3871    4.1201 C   0  0  0  0  0  0  0  0  0  0  0  0
   -0.2661   -8.2327    4.2293 N   0  0  0  0  0  0  0  0  0  0  0  0
   -1.0837   -9.3460    4.1677 C   0  0  0  0  0  0  0  0  0  0  0  0
   -2.2787   -9.1949    4.3863 O   0  0  0  0  0  0  0  0  0  0  0  0
   -0.6249  -10.6147    3.8671 N   0  0  0  0  0  0  0  0  0  0  0  0
    0.6442  -10.7978    3.7503 C   0  0  0  0  0  0  0  0  0  0  0  0
    1.6191   -9.7219    3.9118 C   0  0  0  0  0  0  0  0  0  0  0  0
    2.9594   -9.8567    3.8608 C   0  0  0  0  0  0  0  0  0  0  0  0
    3.7545   -8.7317    4.0215 N   0  0  0  0  0  0  0  0  0  0  0  0
    3.6780  -11.1286    3.6209 C   0  0  0  0  0  0  0  0  0  0  0  0
    3.9723  -11.5799    2.2900 O   0  0  0  0  0  0  0  0  0  0  0  0
    5.0408  -11.1563    3.1582 O   0  0  0  0  0  0  0  0  0  0  0  0
    4.7898   -4.1800    3.5214 C   0  0  0  0  0  0  0  0  0  0  0  0
    5.0511   -4.1911    2.1970 N   0  0  0  0  0  0  0  0  0  0  0  0
    6.0083   -3.3633    1.7886 C   0  0  0  0  0  0  0  0  0  0  0  0
    6.7307   -2.5569    2.5731 N   0  0  0  0  0  0  0  0  0  0  0  0
    6.4818   -2.5616    3.8906 C   0  0  0  0  0  0  0  0  0  0  0  0
    5.4849   -3.3819    4.4459 C   0  0  0  0  0  0  0  0  0  0  0  0
    5.2654   -3.3707    5.8450 C   0  0  0  0  0  0  0  0  0  0  0  0
    6.0233   -2.5394    6.6718 C   0  0  0  0  0  0  0  0  0  0  0  0
    5.8262   -2.5637    8.1259 C   0  0  0  0  0  0  0  0  0  0  0  0
    5.1299   -3.4075    8.6679 O   0  0  0  0  0  0  0  0  0  0  0  0
    6.4939   -1.4762    8.9357 C   0  0  0  0  0  0  0  0  0  0  0  0
    6.3038   -1.3784   10.1412 O   0  0  0  0  0  0  0  0  0  0  0  0
    7.2393   -0.4420    8.1302 C   0  0  1  0  0  0  0  0  0  0  0  0
    7.7890   -0.9038    6.8943 O   0  0  0  0  0  0  0  0  0  0  0  0
    6.9945   -1.7107    6.1287 C   0  0  0  0  0  0  0  0  0  0  0  0
    7.2420   -1.7370    4.7415 C   0  0  0  0  0  0  0  0  0  0  0  0
    8.3210   -0.8462    4.1446 C   0  0  0  0  0  0  0  0  0  0  0  0
    7.7770    0.5130    3.7302 C   0  0  0  0  0  0  0  0  0  0  0  0
    6.4449    0.8142    7.9205 C   0  0  1  0  0  0  0  0  0  0  0  0
    7.0871    1.8444    7.1308 O   0  0  0  0  0  0  0  0  0  0  0  0
    5.0524    0.6232    7.6881 O   0  0  0  0  0  0  0  0  0  0  0  0
    5.3882    1.2888    8.8149 C   0  0  0  0  0  0  0  0  0  0  0  0
    5.0966    2.4225    9.1438 O   0  0  0  0  0  0  0  0  0  0  0  0
    0.5381   -1.5756    3.9985 C   0  0  0  0  0  0  0  0  0  0  0  0
    1.1603   -0.8723    3.2181 O   0  0  0  0  0  0  0  0  0  0  0  0
   -0.6843   -1.0584    4.7158 C   0  0  0  0  0  0  0  0  0  0  0  0
   -1.3223   -0.1263    4.2531 O   0  0  0  0  0  0  0  0  0  0  0  0
   -1.1327   -1.7494    5.9908 C   0  0  0  0  0  0  0  0  0  0  0  0
   -2.1941   -1.4827    6.5291 O   0  0  0  0  0  0  0  0  0  0  0  0
  1  2  1  0  0  0  0
  2  3  2  0  0  0  0
  3  4  1  0  0  0  0
  3 52  1  0  0  0  0
  4  5  1  0  0  0  0
  5  6  1  6  0  0  0
  5 48  1  0  0  0  0
  6  7  1  0  0  0  0
  7  8  2  0  0  0  0
  7 12  1  0  0  0  0
  8  9  1  0  0  0  0
  8 25  1  0  0  0  0
  9 10  1  0  0  0  0
 10 11  2  0  0  0  0
 10 21  1  0  0  0  0
 11 12  1  0  0  0  0
 11 13  1  0  0  0  0
 13 14  2  0  0  0  0
 13 19  1  0  0  0  0
 14 15  1  0  0  0  0
 15 16  2  0  0  0  0
 15 17  1  0  0  0  0
 17 18  2  0  0  0  0
 18 19  1  0  0  0  0
 19 20  2  0  0  0  0
 20 21  1  0  0  0  0
 20 22  1  0  0  0  0
 22 23  1  0  0  0  0
 22 24  1  0  0  0  0
 23 24  1  0  0  0  0
 25 26  2  0  0  0  0
 25 30  1  0  0  0  0
 26 27  1  0  0  0  0
 27 28  2  0  0  0  0
 28 29  1  0  0  0  0
 29 30  2  0  0  0  0
 29 40  1  0  0  0  0
 30 31  1  0  0  0  0
 31 32  2  0  0  0  0
 32 33  1  0  0  0  0
 32 39  1  0  0  0  0
 33 34  2  0  0  0  0
 33 35  1  0  0  0  0
 35 36  2  0  0  0  0
 37 35  1  6  0  0  0
 37 38  1  0  0  0  0
 37 43  1  0  0  0  0
 38 39  1  0  0  0  0
 39 40  2  0  0  0  0
 40 41  1  0  0  0  0
 41 42  1  0  0  0  0
 43 44  1  6  0  0  0
 43 45  1  0  0  0  0
 43 46  1  0  0  0  0
 45 46  1  0  0  0  0
 46 47  2  0  0  0  0
 48 49  2  0  0  0  0
 48 50  1  0  0  0  0
 50 51  2  0  0  0  0
 50 52  1  0  0  0  0
 52 53  2  0  0  0  0
M  END
$$$$