
 OpenBabel11172005503D

 53 62  0  0  1  0  0  0  0  0999 V2000
    7.0720   -3.7269    5.2342 O   0  0  0  0  0  0  0  0  0  0  0  0
    6.8091   -2.3920    5.0599 C   0  0  0  0  0  0  0  0  0  0  0  0
    5.8740   -1.9305    4.2187 C   0  0  0  0  0  0  0  0  0  0  0  0
    5.1346   -2.7764    3.4123 O   0  0  0  0  0  0  0  0  0  0  0  0
    3.7463   -2.4341    3.3622 C   0  0  2  0  0  0  0  0  0  0  0  0
    2.9828   -3.4330    2.6643 O   0  0  0  0  0  0  0  0  0  0  0  0
    2.8663   -4.6913    3.2497 C   0  0  0  0  0  0  0  0  0  0  0  0
    2.2157   -5.6984    2.6239 C   0  0  0  0  0  0  0  0  0  0  0  0
    2.1012   -6.9818    3.1586 O   0  0  0  0  0  0  0  0  0  0  0  0
    2.7629   -7.2849    4.3402 C   0  0  0  0  0  0  0  0  0  0  0  0
    3.4025   -6.3449    5.0554 C   0  0  0  0  0  0  0  0  0  0  0  0
    3.4641   -4.9272    4.6148 C   0  0  0  0  0  0  0  0  0  0  0  0
    4.2057   -6.7230    6.2707 C   0  0  3  0  0  0  0  0  0  0  0  0
    4.0273   -5.7301    7.3146 O   0  0  0  0  0  0  0  0  0  0  0  0
    4.7202   -5.8710    8.4991 C   0  0  0  0  0  0  0  0  0  0  0  0
    5.0421   -4.8870    9.1536 O   0  0  0  0  0  0  0  0  0  0  0  0
    4.8776   -7.2901    8.8901 C   0  0  0  0  0  0  0  0  0  0  0  0
    4.4529   -8.2894    8.1064 C   0  0  0  0  0  0  0  0  0  0  0  0
    3.9208   -8.1356    6.7516 C   0  0  0  0  0  0  0  0  0  0  0  0
    3.2861   -9.0337    5.9736 C   0  0  0  0  0  0  0  0  0  0  0  0
    2.7723   -8.5959    4.7549 N   0  0  0  0  0  0  0  0  0  0  0  0
    3.0426  -10.4485    6.3357 C   0  0  0  0  0  0  0  0  0  0  0  0
    2.3889  -11.3629    5.4367 O   0  0  0  0  0  0  0  0  0  0  0  0
    3.7910  -11.5150    5.7305 O   0  0  0  0  0  0  0  0  0  0  0  0
    4.6931   -9.1770    8.9817 O   0  0  0  0  0  0  0  0  0  0  0  0
    5.1847   -8.0775    9.8411 O   0  0  0  0  0  0  0  0  0  0  0  0
    1.5294   -5.5414    1.3282 C   0  0  0  0  0  0  0  0  0  0  0  0
    0.2214   -5.0817    1.3300 C   0  0  0  0  0  0  0  0  0  0  0  0
   -0.4943   -4.9064    0.2043 N   0  0  0  0  0  0  0  0  0  0  0  0
    0.0829   -5.1747   -1.0024 N   0  0  0  0  0  0  0  0  0  0  0  0
    1.3393   -5.6337   -1.0797 C   0  0  0  0  0  0  0  0  0  0  0  0
    2.1128   -5.8540    0.0802 C   0  0  0  0  0  0  0  0  0  0  0  0
    3.4095   -6.3949   -0.0687 C   0  0  0  0  0  0  0  0  0  0  0  0
    3.9156   -6.7007   -1.3368 C   0  0  0  0  0  0  0  0  0  0  0  0
    3.1748   -6.4191   -2.4751 C   0  0  0  0  0  0  0  0  0  0  0  0
    1.8861   -5.9052   -2.3319 C   0  0  0  0  0  0  0  0  0  0  0  0
    3.6051   -6.6324   -3.7551 O   0  0  0  0  0  0  0  0  0  0  0  0
    5.0162   -6.8023   -3.9335 C   0  0  2  0  0  0  0  0  0  0  0  0
    5.7108   -7.6213   -2.8711 C   0  0  0  0  0  0  0  0  0  0  0  0
    6.6420   -8.3844   -3.0888 O   0  0  0  0  0  0  0  0  0  0  0  0
    5.2091   -7.3803   -1.4674 C   0  0  0  0  0  0  0  0  0  0  0  0
    5.8333   -7.7732   -0.4944 O   0  0  0  0  0  0  0  0  0  0  0  0
    5.6952   -5.4780   -4.1038 C   0  0  1  0  0  0  0  0  0  0  0  0
    5.5945   -4.5518   -2.9938 O   0  0  0  0  0  0  0  0  0  0  0  0
    6.9813   -5.5557   -4.7325 O   0  0  0  0  0  0  0  0  0  0  0  0
    6.0227   -4.8915   -5.3948 C   0  0  0  0  0  0  0  0  0  0  0  0
    5.9943   -3.7266   -5.7546 O   0  0  0  0  0  0  0  0  0  0  0  0
    3.5744   -1.0835    2.6813 C   0  0  0  0  0  0  0  0  0  0  0  0
    2.6609   -0.7694    1.9322 O   0  0  0  0  0  0  0  0  0  0  0  0
    4.6206   -0.0723    3.1003 C   0  0  0  0  0  0  0  0  0  0  0  0
    4.6308    1.0493    2.6174 O   0  0  0  0  0  0  0  0  0  0  0  0
    5.6610   -0.4626    4.1298 C   0  0  0  0  0  0  0  0  0  0  0  0
    6.2229    0.3602    4.8321 O   0  0  0  0  0  0  0  0  0  0  0  0
  1  2  1  0  0  0  0
  2  3  2  0  0  0  0
  3  4  1  0  0  0  0
  3 52  1  0  0  0  0
  4  5  1  0  0  0  0
  5  6  1  6  0  0  0
  5 48  1  0  0  0  0
  6  7  1  0  0  0  0
  7  8  2  0  0  0  0
  7 12  1  0  0  0  0
  8  9  1  0  0  0  0
  8 27  1  0  0  0  0
  9 10  1  0  0  0  0
 10 11  2  0  0  0  0
 10 21  1  0  0  0  0
 11 12  1  0  0  0  0
 11 13  1  0  0  0  0
 13 14  1  0  0  0  0
 13 19  1  0  0  0  0
 14 15  1  0  0  0  0
 15 16  2  0  0  0  0
 15 17  1  0  0  0  0
 17 18  2  0  0  0  0
 17 26  1  0  0  0  0
 18 19  1  0  0  0  0
 18 25  1  0  0  0  0
 19 20  2  0  0  0  0
 20 21  1  0  0  0  0
 20 22  1  0  0  0  0
 22 23  1  0  0  0  0
 22 24  1  0  0  0  0
 23 24  1  0  0  0  0
 25 26  1  0  0  0  0
 27 28  2  0  0  0  0
 27 32  1  0  0  0  0
 28 29  1  0  0  0  0
 29 30  2  0  0  0  0
 30 31  1  0  0  0  0
 31 32  2  0  0  0  0
 31 36  1  0  0  0  0
 32 33  1  0  0  0  0
 33 34  2  0  0  0  0
 34 35  1  0  0  0  0
 34 41  1  0  0  0  0
 35 36  2  0  0  0  0
 35 37  1  0  0  0  0
 38 37  1  1  0  0  0
 38 39  1  0  0  0  0
 38 43  1  0  0  0  0
 39 40  2  0  0  0  0
 39 41  1  0  0  0  0
 41 42  2  0  0  0  0
 43 44  1  1  0  0  0
 43 45  1  0  0  0  0
 43 46  1  0  0  0  0
 45 46  1  0  0  0  0
 46 47  2  0  0  0  0
 48 49  2  0  0  0  0
 48 50  1  0  0  0  0
 50 51  2  0  0  0  0
 50 52  1  0  0  0  0
 52 53  2  0  0  0  0
M  END
$$$$