
 OpenBabel11222002293D

 54 62  0  0  1  0  0  0  0  0999 V2000
    4.3826    6.8269    4.8674 O   0  0  0  0  0  0  0  0  0  0  0  0
    4.6413    6.6793    3.5277 C   0  0  0  0  0  0  0  0  0  0  0  0
    4.4763    5.5335    2.8516 C   0  0  0  0  0  0  0  0  0  0  0  0
    4.1148    4.3512    3.4647 O   0  0  0  0  0  0  0  0  0  0  0  0
    3.0578    3.6417    2.8077 C   0  0  2  0  0  0  0  0  0  0  0  0
    2.6494    2.4572    3.5519 O   0  0  0  0  0  0  0  0  0  0  0  0
    2.6385    2.5343    4.9419 C   0  0  0  0  0  0  0  0  0  0  0  0
    2.8718    1.4498    5.7196 C   0  0  0  0  0  0  0  0  0  0  0  0
    3.0353    1.5419    7.1107 O   0  0  0  0  0  0  0  0  0  0  0  0
    3.0370    2.8028    7.7219 C   0  0  0  0  0  0  0  0  0  0  0  0
    2.6346    3.8944    7.0494 C   0  0  0  0  0  0  0  0  0  0  0  0
    2.2586    3.8427    5.6016 C   0  0  0  0  0  0  0  0  0  0  0  0
    2.5633    5.2524    7.6850 C   0  0  3  0  0  0  0  0  0  0  0  0
    1.1978    5.6240    7.7205 O   0  0  0  0  0  0  0  0  0  0  0  0
    0.8607    6.7828    8.3464 C   0  0  0  0  0  0  0  0  0  0  0  0
   -0.2301    7.3011    8.1727 O   0  0  0  0  0  0  0  0  0  0  0  0
    1.7870    7.3054    9.1864 O   0  0  0  0  0  0  0  0  0  0  0  0
    2.9491    6.6144    9.6312 C   0  0  3  0  0  0  0  0  0  0  0  0
    3.0369    5.2356    9.0850 C   0  0  0  0  0  0  0  0  0  0  0  0
    3.4585    4.1115    9.7058 C   0  0  0  0  0  0  0  0  0  0  0  0
    3.4393    2.8914    9.0375 O   0  3  0  0  0  0  0  0  0  0  0  0
    3.9370    4.0788   11.1078 C   0  0  0  0  0  0  0  0  0  0  0  0
    3.0323    3.8297   12.1902 O   0  0  0  0  0  0  0  0  0  0  0  0
    4.0059    2.8329   11.8233 O   0  0  0  0  0  0  0  0  0  0  0  0
    4.0957    7.2821    9.1388 O   0  0  0  0  0  0  0  0  0  0  0  0
    2.7981    0.0520    5.2066 C   0  0  0  0  0  0  0  0  0  0  0  0
    1.5442   -0.5714    5.3117 C   0  0  0  0  0  0  0  0  0  0  0  0
    1.3838   -1.8515    4.8260 C   0  0  0  0  0  0  0  0  0  0  0  0
    0.1856   -2.4382    4.9258 F   0  0  0  0  0  0  0  0  0  0  0  0
    2.3661   -2.5622    4.2568 N   0  0  0  0  0  0  0  0  0  0  0  0
    3.5923   -1.9918    4.1418 C   0  0  0  0  0  0  0  0  0  0  0  0
    3.8661   -0.6730    4.6115 C   0  0  0  0  0  0  0  0  0  0  0  0
    5.1684   -0.1667    4.4565 C   0  0  0  0  0  0  0  0  0  0  0  0
    6.1519   -0.9416    3.8391 C   0  0  0  0  0  0  0  0  0  0  0  0
    7.4964   -0.4038    3.6216 C   0  0  0  0  0  0  0  0  0  0  0  0
    7.7758    0.7474    3.8982 O   0  0  0  0  0  0  0  0  0  0  0  0
    8.4968   -1.3747    3.0524 C   0  0  0  0  0  0  0  0  0  0  0  0
    9.6109   -1.4643    3.5381 O   0  0  0  0  0  0  0  0  0  0  0  0
    7.8857   -2.3258    2.0586 C   0  0  1  0  0  0  0  0  0  0  0  0
    6.7557   -2.9950    2.6673 O   0  0  0  0  0  0  0  0  0  0  0  0
    5.8573   -2.2193    3.3729 C   0  0  0  0  0  0  0  0  0  0  0  0
    4.6062   -2.7038    3.5519 N   0  3  0  0  0  0  0  0  0  0  0  0
    4.3049   -4.0746    3.0838 N   0  0  0  0  0  0  0  0  0  0  0  0
    7.5620   -1.6874    0.7287 C   0  0  1  0  0  0  0  0  0  0  0  0
    8.6550   -1.0436    0.0609 O   0  0  0  0  0  0  0  0  0  0  0  0
    6.6985   -2.4460   -0.1149 O   0  0  0  0  0  0  0  0  0  0  0  0
    6.2118   -1.2644    0.3257 C   0  0  0  0  0  0  0  0  0  0  0  0
    5.2475   -1.0419    1.0172 O   0  0  0  0  0  0  0  0  0  0  0  0
    3.5318    3.2385    1.4138 C   0  0  0  0  0  0  0  0  0  0  0  0
    3.4303    2.1214    0.9253 O   0  0  0  0  0  0  0  0  0  0  0  0
    4.1938    4.3674    0.6493 C   0  0  0  0  0  0  0  0  0  0  0  0
    4.2367    4.3321   -0.5699 O   0  0  0  0  0  0  0  0  0  0  0  0
    4.7803    5.5451    1.3989 C   0  0  0  0  0  0  0  0  0  0  0  0
    5.4377    6.4113    0.8506 O   0  0  0  0  0  0  0  0  0  0  0  0
  1  2  1  0  0  0  0
  2  3  2  0  0  0  0
  3  4  1  0  0  0  0
  3 53  1  0  0  0  0
  4  5  1  0  0  0  0
  5  6  1  1  0  0  0
  5 49  1  0  0  0  0
  6  7  1  0  0  0  0
  7  8  2  0  0  0  0
  7 12  1  0  0  0  0
  8  9  1  0  0  0  0
  8 26  1  0  0  0  0
  9 10  1  0  0  0  0
 10 11  2  0  0  0  0
 10 21  1  0  0  0  0
 11 12  1  0  0  0  0
 11 13  1  0  0  0  0
 13 14  1  0  0  0  0
 13 19  1  0  0  0  0
 14 15  1  0  0  0  0
 15 16  2  0  0  0  0
 15 17  1  0  0  0  0
 17 18  1  0  0  0  0
 18 19  1  0  0  0  0
 18 25  1  0  0  0  0
 19 20  2  0  0  0  0
 20 21  1  0  0  0  0
 20 22  1  0  0  0  0
 22 23  1  0  0  0  0
 22 24  1  0  0  0  0
 23 24  1  0  0  0  0
 26 27  2  0  0  0  0
 26 32  1  0  0  0  0
 27 28  1  0  0  0  0
 28 29  1  0  0  0  0
 28 30  2  0  0  0  0
 30 31  1  0  0  0  0
 31 32  2  0  0  0  0
 31 42  1  0  0  0  0
 32 33  1  0  0  0  0
 33 34  2  0  0  0  0
 34 35  1  0  0  0  0
 34 41  1  0  0  0  0
 35 36  2  0  0  0  0
 35 37  1  0  0  0  0
 37 38  2  0  0  0  0
 39 37  1  1  0  0  0
 39 40  1  0  0  0  0
 39 44  1  0  0  0  0
 40 41  1  0  0  0  0
 41 42  2  0  0  0  0
 42 43  1  0  0  0  0
 44 45  1  6  0  0  0
 44 46  1  0  0  0  0
 44 47  1  0  0  0  0
 46 47  1  0  0  0  0
 47 48  2  0  0  0  0
 49 50  2  0  0  0  0
 49 51  1  0  0  0  0
 51 52  2  0  0  0  0
 51 53  1  0  0  0  0
 53 54  2  0  0  0  0
M  CHG  2  21   1  42   1
M  END
$$$$