
 OpenBabel11242000453D

 54 62  0  0  1  0  0  0  0  0999 V2000
   -1.8781    5.9426   -2.7781 O   0  0  0  0  0  0  0  0  0  0  0  0
   -2.0912    4.5866   -2.6935 C   0  0  0  0  0  0  0  0  0  0  0  0
   -1.1655    3.6865   -3.0445 C   0  0  0  0  0  0  0  0  0  0  0  0
    0.0389    4.0953   -3.5838 O   0  0  0  0  0  0  0  0  0  0  0  0
    1.1540    3.4543   -2.9818 C   0  0  2  0  0  0  0  0  0  0  0  0
    2.4045    4.0554   -3.3839 O   0  0  0  0  0  0  0  0  0  0  0  0
    2.6842    5.3772   -3.0639 C   0  0  0  0  0  0  0  0  0  0  0  0
    3.9232    5.9124   -3.2318 C   0  0  0  0  0  0  0  0  0  0  0  0
    4.1272    7.2871   -2.9925 O   0  0  0  0  0  0  0  0  0  0  0  0
    3.0726    8.1583   -2.7045 C   0  0  0  0  0  0  0  0  0  0  0  0
    1.8514    7.6785   -2.4307 C   0  0  0  0  0  0  0  0  0  0  0  0
    1.5368    6.2299   -2.5699 C   0  0  0  0  0  0  0  0  0  0  0  0
    0.6933    8.5700   -2.0936 C   0  0  3  0  0  0  0  0  0  0  0  0
    0.3782    8.4176   -0.7078 N   0  0  0  0  0  0  0  0  0  0  0  0
   -0.4994    9.2579   -0.0992 C   0  0  0  0  0  0  0  0  0  0  0  0
   -1.0235    8.9567    0.9621 O   0  0  0  0  0  0  0  0  0  0  0  0
   -0.7192   10.4469   -0.7073 N   0  0  0  0  0  0  0  0  0  0  0  0
   -0.1593   10.8646   -1.9466 C   0  0  3  0  0  0  0  0  0  0  0  0
    1.0276   10.0150   -2.2655 C   0  0  0  0  0  0  0  0  0  0  0  0
    2.2728   10.4388   -2.5808 C   0  0  0  0  0  0  0  0  0  0  0  0
    3.3130    9.5187   -2.7240 O   0  3  0  0  0  0  0  0  0  0  0  0
    2.6320   11.8592   -2.7475 C   0  0  3  0  0  0  0  0  0  0  0  0
    3.9879   12.1470   -3.0797 N   0  0  0  0  0  0  0  0  0  0  0  0
    3.6452   12.3804   -1.9070 N   0  0  0  0  0  0  0  0  0  0  0  0
   -1.1200   10.6484   -2.9468 O   0  0  0  0  0  0  0  0  0  0  0  0
    5.1840    5.1474   -3.6542 C   0  0  0  0  0  0  0  0  0  0  0  0
    5.1716    3.7465   -3.6811 C   0  0  0  0  0  0  0  0  0  0  0  0
    6.2512    3.0261   -4.0011 N   0  3  0  0  0  0  0  0  0  0  0  0
    6.1548    1.6819   -4.0288 F   0  0  0  0  0  0  0  0  0  0  0  0
    7.4145    3.5712   -4.2638 N   0  0  0  0  0  0  0  0  0  0  0  0
    7.5421    4.8937   -4.2446 C   0  0  0  0  0  0  0  0  0  0  0  0
    6.4497    5.7506   -3.9724 C   0  0  0  0  0  0  0  0  0  0  0  0
    6.7375    7.1391   -4.0299 C   0  0  0  0  0  0  0  0  0  0  0  0
    8.0276    7.6463   -4.2563 C   0  0  0  0  0  0  0  0  0  0  0  0
    8.2532    9.0915   -4.1700 C   0  0  0  0  0  0  0  0  0  0  0  0
    7.3208    9.8359   -3.8967 O   0  0  0  0  0  0  0  0  0  0  0  0
    9.6799    9.5633   -4.3594 C   0  0  0  0  0  0  0  0  0  0  0  0
   10.0236   10.6618   -3.9530 O   0  0  0  0  0  0  0  0  0  0  0  0
   10.5707    8.5733   -5.0836 C   0  0  1  0  0  0  0  0  0  0  0  0
   10.3633    7.1992   -4.7174 O   0  0  0  0  0  0  0  0  0  0  0  0
    9.0797    6.7950   -4.4991 C   0  0  0  0  0  0  0  0  0  0  0  0
    8.8128    5.4273   -4.4942 C   0  0  0  0  0  0  0  0  0  0  0  0
    9.8261    4.5778   -4.7295 F   0  0  0  0  0  0  0  0  0  0  0  0
   10.4339    8.7271   -6.5623 C   0  0  1  0  0  0  0  0  0  0  0  0
    9.0984    8.5562   -7.1083 O   0  0  0  0  0  0  0  0  0  0  0  0
   11.2178    9.7594   -7.1460 O   0  0  0  0  0  0  0  0  0  0  0  0
   11.5314    8.4940   -7.5139 C   0  0  0  0  0  0  0  0  0  0  0  0
   11.4737    7.9670   -8.5933 O   0  0  0  0  0  0  0  0  0  0  0  0
    1.1092    2.0154   -3.4530 C   0  0  0  0  0  0  0  0  0  0  0  0
    2.0305    1.4375   -4.0133 O   0  0  0  0  0  0  0  0  0  0  0  0
   -0.2114    1.3512   -3.1104 C   0  0  0  0  0  0  0  0  0  0  0  0
   -0.2502    0.1437   -2.9509 O   0  0  0  0  0  0  0  0  0  0  0  0
   -1.4312    2.2311   -2.8459 C   0  0  0  0  0  0  0  0  0  0  0  0
   -2.4857    1.7856   -2.4334 O   0  0  0  0  0  0  0  0  0  0  0  0
  1  2  1  0  0  0  0
  2  3  2  0  0  0  0
  3  4  1  0  0  0  0
  3 53  1  0  0  0  0
  4  5  1  0  0  0  0
  5  6  1  6  0  0  0
  5 49  1  0  0  0  0
  6  7  1  0  0  0  0
  7  8  2  0  0  0  0
  7 12  1  0  0  0  0
  8  9  1  0  0  0  0
  8 26  1  0  0  0  0
  9 10  1  0  0  0  0
 10 11  2  0  0  0  0
 10 21  1  0  0  0  0
 11 12  1  0  0  0  0
 11 13  1  0  0  0  0
 13 14  1  0  0  0  0
 13 19  1  0  0  0  0
 14 15  1  0  0  0  0
 15 16  2  0  0  0  0
 15 17  1  0  0  0  0
 17 18  1  0  0  0  0
 18 19  1  0  0  0  0
 18 25  1  0  0  0  0
 19 20  2  0  0  0  0
 20 21  1  0  0  0  0
 20 22  1  0  0  0  0
 22 23  1  0  0  0  0
 22 24  1  0  0  0  0
 23 24  2  0  0  0  0
 26 27  2  0  0  0  0
 26 32  1  0  0  0  0
 27 28  1  0  0  0  0
 28 29  1  0  0  0  0
 28 30  2  0  0  0  0
 30 31  1  0  0  0  0
 31 32  2  0  0  0  0
 31 42  1  0  0  0  0
 32 33  1  0  0  0  0
 33 34  2  0  0  0  0
 34 35  1  0  0  0  0
 34 41  1  0  0  0  0
 35 36  2  0  0  0  0
 35 37  1  0  0  0  0
 37 38  2  0  0  0  0
 39 37  1  1  0  0  0
 39 40  1  0  0  0  0
 39 44  1  0  0  0  0
 40 41  1  0  0  0  0
 41 42  2  0  0  0  0
 42 43  1  0  0  0  0
 44 45  1  6  0  0  0
 44 46  1  0  0  0  0
 44 47  1  0  0  0  0
 46 47  1  0  0  0  0
 47 48  2  0  0  0  0
 49 50  2  0  0  0  0
 49 51  1  0  0  0  0
 51 52  2  0  0  0  0
 51 53  1  0  0  0  0
 53 54  2  0  0  0  0
M  CHG  2  21   1  28   1
M  END
$$$$