
 OpenBabel09212020153D

 82 92  0  0  1  0  0  0  0  0999 V2000
    3.5243   -0.7534   -5.3269 C   0  0  0  0  0  0  0  0  0  0  0  0
    4.0455    0.4208   -4.5144 C   0  0  0  0  0  0  0  0  0  0  0  0
    5.1329    0.4322   -3.9596 O   0  0  0  0  0  0  0  0  0  0  0  0
    3.1824    1.4913   -4.5285 N   0  0  0  0  0  0  0  0  0  0  0  0
    3.3903    2.8236   -3.8501 C   0  0  2  0  0  0  0  0  0  0  0  0
    2.8687    2.8401   -2.3679 C   0  0  2  0  0  0  0  0  0  0  0  0
    1.5729    3.4743   -2.2974 O   0  0  0  0  0  0  0  0  0  0  0  0
    0.5994    3.2414   -3.3369 C   0  0  1  0  0  0  0  0  0  0  0  0
    1.1807    3.4760   -4.7686 C   0  0  2  0  0  0  0  0  0  0  0  0
    2.6381    3.9266   -4.6561 C   0  0  1  0  0  0  0  0  0  0  0  0
    2.6796    5.2241   -4.0006 O   0  0  0  0  0  0  0  0  0  0  0  0
    1.6069    6.0749   -4.3085 C   0  0  0  0  0  0  0  0  0  0  0  0
    0.6174    5.7269   -5.1557 C   0  0  0  0  0  0  0  0  0  0  0  0
    0.4430    4.4171   -5.5640 O   0  0  0  0  0  0  0  0  0  0  0  0
   -0.3852    6.6966   -5.7160 C   0  0  0  0  0  0  0  0  0  0  0  0
   -1.1153    6.4313   -6.6481 O   0  0  0  0  0  0  0  0  0  0  0  0
   -0.4237    8.0571   -5.0519 C   0  0  0  0  0  0  0  0  0  0  0  0
   -0.8522    9.0394   -5.5994 O   0  0  0  0  0  0  0  0  0  0  0  0
    0.2032    8.1160   -3.6874 C   0  0  0  0  0  0  0  0  0  0  0  0
   -0.3792    8.6083   -2.7511 O   0  0  0  0  0  0  0  0  0  0  0  0
    1.5187    7.3673   -3.5496 C   0  0  0  0  0  0  0  0  0  0  0  0
    2.3971    7.7867   -2.8263 O   0  0  0  0  0  0  0  0  0  0  0  0
   -0.0664    1.8817   -3.1490 C   0  0  0  0  0  0  0  0  0  0  0  0
   -1.0561    1.7914   -1.6580 P   0  0  3  0  0  0  0  0  0  0  0  0
   -2.4628    2.2600   -1.8551 O   0  0  0  0  0  0  0  0  0  0  0  0
   -0.9114    0.3009   -1.0680 O   0  0  0  0  0  0  0  0  0  0  0  0
   -1.3748   -0.8561   -1.7985 C   0  0  3  0  0  0  0  0  0  0  0  0
   -1.0954   -2.1415   -0.9840 C   0  0  2  0  0  0  0  0  0  0  0  0
    0.3272   -2.3848   -0.9831 O   0  0  0  0  0  0  0  0  0  0  0  0
   -1.7914   -3.4249   -1.5213 C   0  0  1  0  0  0  0  0  0  0  0  0
   -2.2508   -4.1852   -0.3867 O   0  0  0  0  0  0  0  0  0  0  0  0
   -2.9713   -3.1532   -2.4672 C   0  0  1  0  0  0  0  0  0  0  0  0
   -3.7353   -1.9179   -1.9896 C   0  0  2  0  0  0  0  0  0  0  0  0
   -2.8647   -0.6696   -2.1554 C   0  0  2  0  0  0  0  0  0  0  0  0
   -2.9196   -0.2697   -3.5399 O   0  0  0  0  0  0  0  0  0  0  0  0
   -4.1213   -2.0807   -0.6202 O   0  0  0  0  0  0  0  0  0  0  0  0
   -2.4944   -3.0072   -3.8096 O   0  0  0  0  0  0  0  0  0  0  0  0
   -0.3079    2.6601   -0.5413 O   0  0  0  0  0  0  0  0  0  0  0  0
    3.8451    3.5263   -1.5067 O   0  0  0  0  0  0  0  0  0  0  0  0
    3.5741    3.6473   -0.1318 C   0  0  0  0  0  0  0  0  0  0  0  0
    3.9917    4.6828    0.6558 C   0  0  0  0  0  0  0  0  0  0  0  0
    3.4706    4.8825    1.9415 O   0  0  0  0  0  0  0  0  0  0  0  0
    2.6151    3.9624    2.5073 C   0  0  0  0  0  0  0  0  0  0  0  0
    2.3857    2.7348    1.9185 C   0  0  0  0  0  0  0  0  0  0  0  0
    2.9560    2.4585    0.5667 C   0  0  3  0  0  0  0  0  0  0  0  0
    3.9518    1.4415    0.6961 O   0  0  0  0  0  0  0  0  0  0  0  0
    1.5040    1.8635    2.5717 C   0  0  0  0  0  0  0  0  0  0  0  0
    1.3745    0.5248    2.1787 N   0  0  0  0  0  0  0  0  0  0  0  0
    0.5155   -0.3668    2.7442 C   0  0  0  0  0  0  0  0  0  0  0  0
    0.4838   -1.5478    2.4138 O   0  0  0  0  0  0  0  0  0  0  0  0
   -0.3206    0.1047    3.7023 N   0  0  0  0  0  0  0  0  0  0  0  0
   -0.4327    1.4924    4.1102 C   0  0  1  0  0  0  0  0  0  0  0  0
    0.7381    2.3058    3.6427 C   0  0  0  0  0  0  0  0  0  0  0  0
    1.0864    3.5330    4.1645 C   0  0  0  0  0  0  0  0  0  0  0  0
    2.0196    4.3591    3.6596 N   0  0  0  0  0  0  0  0  0  0  0  0
    0.4976    3.9992    5.2952 O   0  0  0  0  0  0  0  0  0  0  0  0
   -1.7523    2.0571    3.5660 C   0  0  0  0  0  0  0  0  0  0  0  0
    4.9912    5.7442    0.2636 C   0  0  0  0  0  0  0  0  0  0  0  0
    4.9572    6.0005   -1.0682 N   0  0  0  0  0  0  0  0  0  0  0  0
    5.7673    6.9488   -1.5170 C   0  0  0  0  0  0  0  0  0  0  0  0
    5.7423    7.1035   -2.8689 O   0  0  0  0  0  0  0  0  0  0  0  0
    6.6013    7.7350   -0.7496 C   0  0  0  0  0  0  0  0  0  0  0  0
    6.6897    7.5113    0.6379 C   0  0  0  0  0  0  0  0  0  0  0  0
    5.9090    6.4353    1.1802 C   0  0  0  0  0  0  0  0  0  0  0  0
    6.1692    6.1425    2.5674 C   0  0  0  0  0  0  0  0  0  0  0  0
    5.6680    4.9681    3.0859 O   0  0  0  0  0  0  0  0  0  0  0  0
    7.0079    6.9309    3.3902 C   0  0  0  0  0  0  0  0  0  0  0  0
    7.6734    8.0139    2.8543 C   0  0  0  0  0  0  0  0  0  0  0  0
    7.5289    8.3167    1.4906 C   0  0  0  0  0  0  0  0  0  0  0  0
    8.4038    9.2929    0.9449 N   0  0  0  0  0  0  0  0  0  0  0  0
    8.5210    8.8098    3.5939 O   0  0  0  0  0  0  0  0  0  0  0  0
    8.7886    8.4672    4.9038 C   0  0  0  0  0  0  0  0  0  0  0  0
    8.2212    7.4325    5.5470 C   0  0  0  0  0  0  0  0  0  0  0  0
    7.2395    6.6125    4.8148 C   0  0  0  0  0  0  0  0  0  0  0  0
    6.6044    5.6949    5.3224 O   0  0  0  0  0  0  0  0  0  0  0  0
    8.6368    7.1787    6.9691 C   0  0  0  0  0  0  0  0  0  0  0  0
    8.1954    6.2141    7.5856 O   0  0  0  0  0  0  0  0  0  0  0  0
    9.5361    8.0484    7.5678 N   0  0  0  0  0  0  0  0  0  0  0  0
    9.9964    8.9996    6.8443 C   0  0  0  0  0  0  0  0  0  0  0  0
    9.6908    9.2547    5.5611 N   0  0  0  0  0  0  0  0  0  0  0  0
   10.8718    9.8533    7.3802 O   0  0  0  0  0  0  0  0  0  0  0  0
    7.3295    8.7132   -1.3889 O   0  0  0  0  0  0  0  0  0  0  0  0
  1  2  1  0  0  0  0
  2  3  2  0  0  0  0
  2  4  1  0  0  0  0
  5  6  1  0  0  0  0
  5 10  1  0  0  0  0
  5  4  1  6  0  0  0
  6  7  1  0  0  0  0
  6 39  1  1  0  0  0
  7  8  1  0  0  0  0
  8  9  1  0  0  0  0
  8 23  1  6  0  0  0
  9 10  1  0  0  0  0
  9 14  1  1  0  0  0
 10 11  1  1  0  0  0
 11 12  1  0  0  0  0
 12 13  2  0  0  0  0
 12 21  1  0  0  0  0
 13 14  1  0  0  0  0
 13 15  1  0  0  0  0
 15 17  1  0  0  0  0
 15 16  2  0  0  0  0
 17 19  1  0  0  0  0
 17 18  2  0  0  0  0
 19 21  1  0  0  0  0
 19 20  2  0  0  0  0
 21 22  2  0  0  0  0
 23 24  1  0  0  0  0
 24 25  2  0  0  0  0
 24 26  1  0  0  0  0
 24 38  1  0  0  0  0
 26 27  1  0  0  0  0
 27 28  1  0  0  0  0
 27 34  1  0  0  0  0
 28 30  1  0  0  0  0
 28 29  1  6  0  0  0
 30 32  1  0  0  0  0
 30 31  1  1  0  0  0
 32 33  1  0  0  0  0
 32 37  1  6  0  0  0
 33 34  1  0  0  0  0
 33 36  1  1  0  0  0
 34 35  1  6  0  0  0
 39 40  1  0  0  0  0
 40 41  2  0  0  0  0
 40 45  1  0  0  0  0
 41 42  1  0  0  0  0
 41 58  1  0  0  0  0
 42 43  1  0  0  0  0
 43 44  2  0  0  0  0
 43 55  1  0  0  0  0
 44 45  1  0  0  0  0
 44 47  1  0  0  0  0
 45 46  1  0  0  0  0
 47 48  1  0  0  0  0
 47 53  2  0  0  0  0
 48 49  1  0  0  0  0
 49 50  2  0  0  0  0
 49 51  1  0  0  0  0
 51 52  1  0  0  0  0
 52 53  1  0  0  0  0
 52 57  1  6  0  0  0
 53 54  1  0  0  0  0
 54 55  2  0  0  0  0
 54 56  1  0  0  0  0
 58 59  2  0  0  0  0
 58 64  1  0  0  0  0
 59 60  1  0  0  0  0
 60 61  1  0  0  0  0
 60 62  2  0  0  0  0
 62 63  1  0  0  0  0
 62 82  1  0  0  0  0
 63 64  2  0  0  0  0
 63 69  1  0  0  0  0
 64 65  1  0  0  0  0
 65 66  1  0  0  0  0
 65 67  2  0  0  0  0
 67 68  1  0  0  0  0
 67 74  1  0  0  0  0
 68 69  2  0  0  0  0
 68 71  1  0  0  0  0
 69 70  1  0  0  0  0
 71 72  1  0  0  0  0
 72 73  2  0  0  0  0
 72 80  1  0  0  0  0
 73 74  1  0  0  0  0
 73 76  1  0  0  0  0
 74 75  2  0  0  0  0
 76 77  2  0  0  0  0
 76 78  1  0  0  0  0
 78 79  2  0  0  0  0
 79 80  1  0  0  0  0
 79 81  1  0  0  0  0
M  END
$$$$