
 OpenBabel11172005183D

 52 60  0  0  1  0  0  0  0  0999 V2000
    5.8388   -2.2998   -8.7337 O   0  0  0  0  0  0  0  0  0  0  0  0
    5.9272   -3.2355   -7.7352 C   0  0  0  0  0  0  0  0  0  0  0  0
    5.5069   -2.9964   -6.4881 C   0  0  0  0  0  0  0  0  0  0  0  0
    5.0355   -1.7543   -6.1146 O   0  0  0  0  0  0  0  0  0  0  0  0
    3.8221   -1.8085   -5.3651 C   0  0  2  0  0  0  0  0  0  0  0  0
    3.3391   -0.4755   -5.1133 O   0  0  0  0  0  0  0  0  0  0  0  0
    3.0906    0.2967   -6.2497 C   0  0  0  0  0  0  0  0  0  0  0  0
    3.2080    1.6430   -6.2464 C   0  0  0  0  0  0  0  0  0  0  0  0
    2.9009    2.4305   -7.3613 O   0  0  0  0  0  0  0  0  0  0  0  0
    2.3747    1.8292   -8.5050 C   0  0  0  0  0  0  0  0  0  0  0  0
    2.2122    0.4965   -8.6033 C   0  0  0  0  0  0  0  0  0  0  0  0
    2.6140   -0.4102   -7.4917 C   0  0  0  0  0  0  0  0  0  0  0  0
    1.6578   -0.0564   -9.8541 C   0  0  0  0  0  0  0  0  0  0  0  0
    1.4183   -1.3767   -9.9774 C   0  0  0  0  0  0  0  0  0  0  0  0
    0.8459   -1.9681  -11.2000 C   0  0  0  0  0  0  0  0  0  0  0  0
    0.5856   -3.1639  -11.2551 O   0  0  0  0  0  0  0  0  0  0  0  0
    0.6152   -1.0819  -12.3523 C   0  0  0  0  0  0  0  0  0  0  0  0
    0.8580    0.2322  -12.2608 C   0  0  0  0  0  0  0  0  0  0  0  0
    1.3400    0.8412  -11.0081 C   0  0  0  0  0  0  0  0  0  0  0  0
    1.5239    2.1812  -10.7909 C   0  0  0  0  0  0  0  0  0  0  0  0
    2.0172    2.6397   -9.5583 N   0  0  0  0  0  0  0  0  0  0  0  0
    1.2207    3.2645  -11.7672 C   0  0  0  0  0  0  0  0  0  0  0  0
    1.4758    4.6522  -11.4654 O   0  0  0  0  0  0  0  0  0  0  0  0
    2.2553    3.9730  -12.4678 O   0  0  0  0  0  0  0  0  0  0  0  0
    0.6859    1.0608  -13.3478 O   0  0  0  0  0  0  0  0  0  0  0  0
    3.6221    2.4166   -5.0562 C   0  0  0  0  0  0  0  0  0  0  0  0
    2.6342    2.8393   -4.1789 C   0  0  0  0  0  0  0  0  0  0  0  0
    2.8989    3.5359   -3.0582 N   0  0  0  0  0  0  0  0  0  0  0  0
    4.1927    3.8473   -2.7525 N   0  0  0  0  0  0  0  0  0  0  0  0
    5.2003    3.4833   -3.5561 C   0  0  0  0  0  0  0  0  0  0  0  0
    4.9637    2.7560   -4.7433 C   0  0  0  0  0  0  0  0  0  0  0  0
    6.0796    2.4220   -5.5452 C   0  0  0  0  0  0  0  0  0  0  0  0
    7.3798    2.8028   -5.1728 C   0  0  0  0  0  0  0  0  0  0  0  0
    7.6038    3.5182   -4.0103 C   0  0  0  0  0  0  0  0  0  0  0  0
    6.5049    3.8429   -3.2117 C   0  0  0  0  0  0  0  0  0  0  0  0
    8.8187    3.9421   -3.5603 O   0  0  0  0  0  0  0  0  0  0  0  0
    9.9882    3.6640   -4.3354 C   0  0  2  0  0  0  0  0  0  0  0  0
    9.8131    3.1598   -5.7499 C   0  0  0  0  0  0  0  0  0  0  0  0
   10.6495    3.2730   -6.6363 O   0  0  0  0  0  0  0  0  0  0  0  0
    8.5149    2.4490   -6.0212 C   0  0  0  0  0  0  0  0  0  0  0  0
    8.4204    1.6277   -6.9193 O   0  0  0  0  0  0  0  0  0  0  0  0
   10.9005    2.7525   -3.5562 C   0  0  1  0  0  0  0  0  0  0  0  0
   10.3549    1.4762   -3.1595 O   0  0  0  0  0  0  0  0  0  0  0  0
   12.2622    2.6887   -3.9983 O   0  0  0  0  0  0  0  0  0  0  0  0
   12.0368    3.2722   -2.8144 C   0  0  0  0  0  0  0  0  0  0  0  0
   12.3327    4.3857   -2.4135 O   0  0  0  0  0  0  0  0  0  0  0  0
    3.9927   -2.5784   -4.0570 C   0  0  0  0  0  0  0  0  0  0  0  0
    3.2630   -2.4942   -3.0794 O   0  0  0  0  0  0  0  0  0  0  0  0
    5.1002   -3.6092   -4.1117 C   0  0  0  0  0  0  0  0  0  0  0  0
    5.6083   -4.0411   -3.0898 O   0  0  0  0  0  0  0  0  0  0  0  0
    5.5969   -4.0686   -5.4666 C   0  0  0  0  0  0  0  0  0  0  0  0
    5.9760   -5.2063   -5.6780 O   0  0  0  0  0  0  0  0  0  0  0  0
  1  2  1  0  0  0  0
  2  3  2  0  0  0  0
  3  4  1  0  0  0  0
  3 51  1  0  0  0  0
  4  5  1  0  0  0  0
  5  6  1  1  0  0  0
  5 47  1  0  0  0  0
  6  7  1  0  0  0  0
  7  8  2  0  0  0  0
  7 12  1  0  0  0  0
  8  9  1  0  0  0  0
  8 26  1  0  0  0  0
  9 10  1  0  0  0  0
 10 11  2  0  0  0  0
 10 21  1  0  0  0  0
 11 12  1  0  0  0  0
 11 13  1  0  0  0  0
 13 14  2  0  0  0  0
 13 19  1  0  0  0  0
 14 15  1  0  0  0  0
 15 16  2  0  0  0  0
 15 17  1  0  0  0  0
 17 18  2  0  0  0  0
 18 19  1  0  0  0  0
 18 25  1  0  0  0  0
 19 20  2  0  0  0  0
 20 21  1  0  0  0  0
 20 22  1  0  0  0  0
 22 23  1  0  0  0  0
 22 24  1  0  0  0  0
 23 24  1  0  0  0  0
 26 27  2  0  0  0  0
 26 31  1  0  0  0  0
 27 28  1  0  0  0  0
 28 29  2  0  0  0  0
 29 30  1  0  0  0  0
 30 31  2  0  0  0  0
 30 35  1  0  0  0  0
 31 32  1  0  0  0  0
 32 33  2  0  0  0  0
 33 34  1  0  0  0  0
 33 40  1  0  0  0  0
 34 35  2  0  0  0  0
 34 36  1  0  0  0  0
 37 36  1  1  0  0  0
 37 38  1  0  0  0  0
 37 42  1  0  0  0  0
 38 39  2  0  0  0  0
 38 40  1  0  0  0  0
 40 41  2  0  0  0  0
 42 43  1  1  0  0  0
 42 44  1  0  0  0  0
 42 45  1  0  0  0  0
 44 45  1  0  0  0  0
 45 46  2  0  0  0  0
 47 48  2  0  0  0  0
 47 49  1  0  0  0  0
 49 50  2  0  0  0  0
 49 51  1  0  0  0  0
 51 52  2  0  0  0  0
M  END
$$$$