
 OpenBabel11152013203D

 53 61  0  0  1  0  0  0  0  0999 V2000
    0.4955    6.3193   -8.1554 O   0  0  0  0  0  0  0  0  0  0  0  0
    0.5009    4.9652   -7.9496 C   0  0  0  0  0  0  0  0  0  0  0  0
    0.5196    4.4207   -6.7274 C   0  0  0  0  0  0  0  0  0  0  0  0
    0.4826    5.2040   -5.5900 O   0  0  0  0  0  0  0  0  0  0  0  0
    1.1282    4.7108   -4.4108 C   0  0  2  0  0  0  0  0  0  0  0  0
    2.5058    5.1232   -4.3482 O   0  0  0  0  0  0  0  0  0  0  0  0
    2.7271    6.5002   -4.2951 C   0  0  0  0  0  0  0  0  0  0  0  0
    3.8714    7.0620   -4.7467 C   0  0  0  0  0  0  0  0  0  0  0  0
    4.0994    8.4381   -4.7102 O   0  0  0  0  0  0  0  0  0  0  0  0
    3.1654    9.2844   -4.1156 C   0  0  0  0  0  0  0  0  0  0  0  0
    2.0125    8.8173   -3.6164 C   0  0  0  0  0  0  0  0  0  0  0  0
    1.6584    7.3723   -3.6811 C   0  0  0  0  0  0  0  0  0  0  0  0
    1.0065    9.7117   -2.9642 C   0  0  3  0  0  0  0  0  0  0  0  0
    0.8420    9.2504   -1.6252 O   0  0  0  0  0  0  0  0  0  0  0  0
    0.1800   10.0002   -0.7120 C   0  0  0  0  0  0  0  0  0  0  0  0
   -0.1458    9.5360    0.3723 O   0  0  0  0  0  0  0  0  0  0  0  0
   -0.0765   11.2893   -1.0380 O   0  0  0  0  0  0  0  0  0  0  0  0
    0.3838   11.9146   -2.2326 C   0  0  3  0  0  0  0  0  0  0  0  0
    1.4338   11.1227   -2.9121 C   0  0  0  0  0  0  0  0  0  0  0  0
    2.6139   11.5424   -3.4185 C   0  0  0  0  0  0  0  0  0  0  0  0
    3.4837   10.6339   -4.0402 O   0  0  0  0  0  0  0  0  0  0  0  0
    3.1180   12.9314   -3.3767 C   0  0  0  0  0  0  0  0  0  0  0  0
    3.4135   13.6514   -4.5864 O   0  0  0  0  0  0  0  0  0  0  0  0
    2.3240   14.0700   -3.7436 O   0  0  0  0  0  0  0  0  0  0  0  0
   -0.7099   12.0298   -3.1289 O   0  0  0  0  0  0  0  0  0  0  0  0
    5.0027    6.2956   -5.3135 C   0  0  0  0  0  0  0  0  0  0  0  0
    5.9413    5.9424   -4.4098 N   0  0  0  0  0  0  0  0  0  0  0  0
    6.9802    5.2554   -4.7979 N   0  0  0  0  0  0  0  0  0  0  0  0
    7.1346    4.8676   -6.0412 N   0  0  0  0  0  0  0  0  0  0  0  0
    6.2311    5.1880   -6.9785 C   0  0  0  0  0  0  0  0  0  0  0  0
    5.1104    5.9577   -6.6647 C   0  0  0  0  0  0  0  0  0  0  0  0
    4.1997    6.3236   -7.6936 C   0  0  0  0  0  0  0  0  0  0  0  0
    4.3750    5.8541   -8.9996 C   0  0  0  0  0  0  0  0  0  0  0  0
    3.4254    6.2140  -10.0606 C   0  0  0  0  0  0  0  0  0  0  0  0
    2.5423    7.0420   -9.8966 O   0  0  0  0  0  0  0  0  0  0  0  0
    3.5635    5.4864  -11.3768 C   0  0  0  0  0  0  0  0  0  0  0  0
    2.9046    5.8244  -12.3502 O   0  0  0  0  0  0  0  0  0  0  0  0
    4.4794    4.2861  -11.3379 C   0  0  1  0  0  0  0  0  0  0  0  0
    5.6553    4.4579  -10.5322 O   0  0  0  0  0  0  0  0  0  0  0  0
    5.4441    5.0263   -9.3023 C   0  0  0  0  0  0  0  0  0  0  0  0
    6.3792    4.7416   -8.3018 C   0  0  0  0  0  0  0  0  0  0  0  0
    7.4721    3.9673   -8.6293 O   0  0  0  0  0  0  0  0  0  0  0  0
    3.7305    3.0546  -10.9288 C   0  0  1  0  0  0  0  0  0  0  0  0
    3.0800    3.0897   -9.6335 O   0  0  0  0  0  0  0  0  0  0  0  0
    2.9893    2.4306  -11.9782 O   0  0  0  0  0  0  0  0  0  0  0  0
    4.0111    1.7212  -11.4597 C   0  0  0  0  0  0  0  0  0  0  0  0
    4.0125    0.6482  -10.9043 O   0  0  0  0  0  0  0  0  0  0  0  0
    1.0124    3.2073   -4.1437 C   0  0  0  0  0  0  0  0  0  0  0  0
    1.4942    2.6040   -3.1978 O   0  0  0  0  0  0  0  0  0  0  0  0
    0.2770    2.4951   -5.2213 C   0  0  0  0  0  0  0  0  0  0  0  0
   -0.9459    1.4374   -4.8433 S   0  0  0  0  0  0  0  0  0  0  0  0
    0.4622    2.9389   -6.6316 C   0  0  0  0  0  0  0  0  0  0  0  0
    0.6180    2.1608   -7.5551 O   0  0  0  0  0  0  0  0  0  0  0  0
  1  2  1  0  0  0  0
  2  3  2  0  0  0  0
  3  4  1  0  0  0  0
  3 52  1  0  0  0  0
  4  5  1  0  0  0  0
  5  6  1  6  0  0  0
  5 48  1  0  0  0  0
  6  7  1  0  0  0  0
  7  8  2  0  0  0  0
  7 12  1  0  0  0  0
  8  9  1  0  0  0  0
  8 26  1  0  0  0  0
  9 10  1  0  0  0  0
 10 11  2  0  0  0  0
 10 21  1  0  0  0  0
 11 12  1  0  0  0  0
 11 13  1  0  0  0  0
 13 14  1  0  0  0  0
 13 19  1  0  0  0  0
 14 15  1  0  0  0  0
 15 16  2  0  0  0  0
 15 17  1  0  0  0  0
 17 18  1  0  0  0  0
 18 19  1  0  0  0  0
 18 25  1  0  0  0  0
 19 20  2  0  0  0  0
 20 21  1  0  0  0  0
 20 22  1  0  0  0  0
 22 23  1  0  0  0  0
 22 24  1  0  0  0  0
 23 24  1  0  0  0  0
 26 27  2  0  0  0  0
 26 31  1  0  0  0  0
 27 28  1  0  0  0  0
 28 29  2  0  0  0  0
 29 30  1  0  0  0  0
 30 31  2  0  0  0  0
 30 41  1  0  0  0  0
 31 32  1  0  0  0  0
 32 33  2  0  0  0  0
 33 34  1  0  0  0  0
 33 40  1  0  0  0  0
 34 35  2  0  0  0  0
 34 36  1  0  0  0  0
 36 37  2  0  0  0  0
 38 36  1  1  0  0  0
 38 39  1  0  0  0  0
 38 43  1  0  0  0  0
 39 40  1  0  0  0  0
 40 41  2  0  0  0  0
 41 42  1  0  0  0  0
 43 44  1  1  0  0  0
 43 45  1  0  0  0  0
 43 46  1  0  0  0  0
 45 46  1  0  0  0  0
 46 47  2  0  0  0  0
 48 49  2  0  0  0  0
 48 50  1  0  0  0  0
 50 51  2  0  0  0  0
 50 52  1  0  0  0  0
 52 53  2  0  0  0  0
M  END
$$$$