
 OpenBabel11222000583D

 54 62  0  0  1  0  0  0  0  0999 V2000
    7.4490    5.7303   -4.2846 O   0  0  0  0  0  0  0  0  0  0  0  0
    7.5928    4.3773   -4.4476 C   0  0  0  0  0  0  0  0  0  0  0  0
    6.7439    3.4879   -3.9212 C   0  0  0  0  0  0  0  0  0  0  0  0
    5.6683    3.8867   -3.1481 O   0  0  0  0  0  0  0  0  0  0  0  0
    4.4726    3.2138   -3.5243 C   0  0  2  0  0  0  0  0  0  0  0  0
    3.3317    3.7607   -2.8334 O   0  0  0  0  0  0  0  0  0  0  0  0
    3.0514    5.1082   -3.0333 C   0  0  0  0  0  0  0  0  0  0  0  0
    2.3981    5.8424   -2.0987 C   0  0  0  0  0  0  0  0  0  0  0  0
    2.1303    7.2057   -2.2833 O   0  0  0  0  0  0  0  0  0  0  0  0
    2.5551    7.8499   -3.4423 C   0  0  0  0  0  0  0  0  0  0  0  0
    3.1305    7.1659   -4.4369 C   0  0  0  0  0  0  0  0  0  0  0  0
    3.4517    5.7241   -4.3513 C   0  0  0  0  0  0  0  0  0  0  0  0
    3.5002    7.8869   -5.6786 C   0  0  0  0  0  0  0  0  0  0  0  0
    3.9247    7.2149   -6.7024 N   0  0  0  0  0  0  0  0  0  0  0  0
    4.2471    7.9330   -7.8131 C   0  0  0  0  0  0  0  0  0  0  0  0
    4.4894    7.2155   -8.8447 N   0  0  0  0  0  0  0  0  0  0  0  0
    4.3279    9.2841   -7.9387 N   0  0  0  0  0  0  0  0  0  0  0  0
    3.8941    9.9459   -6.9319 C   0  0  0  0  0  0  0  0  0  0  0  0
    3.3722    9.3664   -5.6939 C   0  0  0  0  0  0  0  0  0  0  0  0
    2.8217    9.9735   -4.6201 C   0  0  0  0  0  0  0  0  0  0  0  0
    2.3771    9.2071   -3.5386 N   0  0  0  0  0  0  0  0  0  0  0  0
    2.6376   11.4394   -4.4905 C   0  0  0  0  0  0  0  0  0  0  0  0
    1.4433   12.0906   -4.9490 O   0  0  0  0  0  0  0  0  0  0  0  0
    1.7184   12.0044   -3.5377 O   0  0  0  0  0  0  0  0  0  0  0  0
    3.9384   11.2778   -7.0007 O   0  0  0  0  0  0  0  0  0  0  0  0
    1.8701    5.2715   -0.8201 C   0  0  0  0  0  0  0  0  0  0  0  0
    1.3640    3.9710   -0.8442 C   0  0  0  0  0  0  0  0  0  0  0  0
    0.8652    3.3948    0.2491 N   0  3  0  0  0  0  0  0  0  0  0  0
    0.4249    2.1244    0.1719 F   0  0  0  0  0  0  0  0  0  0  0  0
    0.7649    4.0262    1.3987 N   0  0  0  0  0  0  0  0  0  0  0  0
    1.1906    5.2879    1.4972 C   0  0  0  0  0  0  0  0  0  0  0  0
    1.7789    5.9718    0.4129 C   0  0  0  0  0  0  0  0  0  0  0  0
    2.2222    7.3005    0.6458 C   0  0  0  0  0  0  0  0  0  0  0  0
    2.0259    7.9386    1.8805 C   0  0  0  0  0  0  0  0  0  0  0  0
    2.4322    9.3337    2.0568 C   0  0  0  0  0  0  0  0  0  0  0  0
    3.1047    9.9180    1.2253 O   0  0  0  0  0  0  0  0  0  0  0  0
    1.9165   10.0150    3.2969 C   0  0  0  0  0  0  0  0  0  0  0  0
    1.6409   11.2046    3.2800 O   0  0  0  0  0  0  0  0  0  0  0  0
    1.7420    9.0919    4.4805 C   0  0  1  0  0  0  0  0  0  0  0  0
    1.1857    7.8039    4.1638 O   0  0  0  0  0  0  0  0  0  0  0  0
    1.4219    7.2721    2.9281 C   0  0  0  0  0  0  0  0  0  0  0  0
    1.0288    5.9493    2.7171 C   0  0  0  0  0  0  0  0  0  0  0  0
    0.4537    5.2805    3.7311 F   0  0  0  0  0  0  0  0  0  0  0  0
    3.0105    8.9951    5.2862 C   0  0  1  0  0  0  0  0  0  0  0  0
    3.5078   10.2210    5.8494 O   0  0  0  0  0  0  0  0  0  0  0  0
    3.1435    7.8510    6.1371 O   0  0  0  0  0  0  0  0  0  0  0  0
    3.9821    7.9262    5.0840 C   0  0  0  0  0  0  0  0  0  0  0  0
    4.1529    7.1755    4.1524 O   0  0  0  0  0  0  0  0  0  0  0  0
    4.5881    1.7451   -3.1583 C   0  0  0  0  0  0  0  0  0  0  0  0
    3.7139    1.0928   -2.6018 O   0  0  0  0  0  0  0  0  0  0  0  0
    5.9085    1.1376   -3.5891 C   0  0  0  0  0  0  0  0  0  0  0  0
    6.0912   -0.0637   -3.4823 O   0  0  0  0  0  0  0  0  0  0  0  0
    6.9848    2.0397   -4.1693 C   0  0  0  0  0  0  0  0  0  0  0  0
    7.9222    1.6025   -4.8118 O   0  0  0  0  0  0  0  0  0  0  0  0
  1  2  1  0  0  0  0
  2  3  2  0  0  0  0
  3  4  1  0  0  0  0
  3 53  1  0  0  0  0
  4  5  1  0  0  0  0
  5  6  1  1  0  0  0
  5 49  1  0  0  0  0
  6  7  1  0  0  0  0
  7  8  2  0  0  0  0
  7 12  1  0  0  0  0
  8  9  1  0  0  0  0
  8 26  1  0  0  0  0
  9 10  1  0  0  0  0
 10 11  2  0  0  0  0
 10 21  1  0  0  0  0
 11 12  1  0  0  0  0
 11 13  1  0  0  0  0
 13 14  2  0  0  0  0
 13 19  1  0  0  0  0
 14 15  1  0  0  0  0
 15 16  2  0  0  0  0
 15 17  1  0  0  0  0
 17 18  2  0  0  0  0
 18 19  1  0  0  0  0
 18 25  1  0  0  0  0
 19 20  2  0  0  0  0
 20 21  1  0  0  0  0
 20 22  1  0  0  0  0
 22 23  1  0  0  0  0
 22 24  1  0  0  0  0
 23 24  1  0  0  0  0
 26 27  2  0  0  0  0
 26 32  1  0  0  0  0
 27 28  1  0  0  0  0
 28 29  1  0  0  0  0
 28 30  2  0  0  0  0
 30 31  1  0  0  0  0
 31 32  2  0  0  0  0
 31 42  1  0  0  0  0
 32 33  1  0  0  0  0
 33 34  2  0  0  0  0
 34 35  1  0  0  0  0
 34 41  1  0  0  0  0
 35 36  2  0  0  0  0
 35 37  1  0  0  0  0
 37 38  2  0  0  0  0
 39 37  1  6  0  0  0
 39 40  1  0  0  0  0
 39 44  1  0  0  0  0
 40 41  1  0  0  0  0
 41 42  2  0  0  0  0
 42 43  1  0  0  0  0
 44 45  1  1  0  0  0
 44 46  1  0  0  0  0
 44 47  1  0  0  0  0
 46 47  1  0  0  0  0
 47 48  2  0  0  0  0
 49 50  2  0  0  0  0
 49 51  1  0  0  0  0
 51 52  2  0  0  0  0
 51 53  1  0  0  0  0
 53 54  2  0  0  0  0
M  CHG  1  28   1
M  END
$$$$