
 OpenBabel11152012183D

 52 60  0  0  1  0  0  0  0  0999 V2000
    2.6614    3.3384   -3.9482 O   0  0  0  0  0  0  0  0  0  0  0  0
    2.7911    2.7087   -2.7386 C   0  0  0  0  0  0  0  0  0  0  0  0
    2.4600    1.4272   -2.5362 C   0  0  0  0  0  0  0  0  0  0  0  0
    1.8987    0.6418   -3.5227 O   0  0  0  0  0  0  0  0  0  0  0  0
    2.4350   -0.6816   -3.6104 C   0  0  2  0  0  0  0  0  0  0  0  0
    1.7592   -1.4573   -4.6263 O   0  0  0  0  0  0  0  0  0  0  0  0
    1.9414   -1.0967   -5.9606 C   0  0  0  0  0  0  0  0  0  0  0  0
    1.8428   -2.0057   -6.9595 C   0  0  0  0  0  0  0  0  0  0  0  0
    1.9785   -1.6778   -8.3072 O   0  0  0  0  0  0  0  0  0  0  0  0
    2.1963   -0.3583   -8.6692 C   0  0  0  0  0  0  0  0  0  0  0  0
    2.2941    0.6250   -7.7615 C   0  0  0  0  0  0  0  0  0  0  0  0
    2.1817    0.3580   -6.2951 C   0  0  0  0  0  0  0  0  0  0  0  0
    2.5020    2.0554   -8.1966 C   0  0  3  0  0  0  0  0  0  0  0  0
    3.7080    2.5152   -7.5898 O   0  0  0  0  0  0  0  0  0  0  0  0
    4.2587    3.6956   -7.9598 C   0  0  0  0  0  0  0  0  0  0  0  0
    5.1398    4.2222   -7.2921 O   0  0  0  0  0  0  0  0  0  0  0  0
    3.8264    4.2528   -9.1145 O   0  0  0  0  0  0  0  0  0  0  0  0
    2.8628    3.6595   -9.9775 C   0  0  3  0  0  0  0  0  0  0  0  0
    2.6278    2.2330   -9.6707 C   0  0  0  0  0  0  0  0  0  0  0  0
    2.5279    1.1929  -10.5319 C   0  0  0  0  0  0  0  0  0  0  0  0
    2.3106   -0.0771  -10.0087 N   0  0  0  0  0  0  0  0  0  0  0  0
    2.6232    1.2734  -12.0115 C   0  0  0  0  0  0  0  0  0  0  0  0
    1.4424    1.3847  -12.8262 O   0  0  0  0  0  0  0  0  0  0  0  0
    2.3821    2.4710  -12.7702 O   0  0  0  0  0  0  0  0  0  0  0  0
    1.6345    4.3507   -9.8206 O   0  0  0  0  0  0  0  0  0  0  0  0
    1.6060   -3.4435   -6.7330 C   0  0  0  0  0  0  0  0  0  0  0  0
    2.7296   -4.1720   -6.5646 N   0  0  0  0  0  0  0  0  0  0  0  0
    2.6285   -5.4490   -6.3237 N   0  0  0  0  0  0  0  0  0  0  0  0
    1.4647   -6.0443   -6.1858 N   0  0  0  0  0  0  0  0  0  0  0  0
    0.3254   -5.3622   -6.3516 C   0  0  0  0  0  0  0  0  0  0  0  0
    0.3354   -4.0170   -6.6873 C   0  0  0  0  0  0  0  0  0  0  0  0
   -0.8925   -3.3660   -6.9432 C   0  0  0  0  0  0  0  0  0  0  0  0
   -2.1168   -4.0469   -6.7900 C   0  0  0  0  0  0  0  0  0  0  0  0
   -2.1285   -5.3748   -6.3496 C   0  0  0  0  0  0  0  0  0  0  0  0
   -0.9016   -6.0043   -6.1725 C   0  0  0  0  0  0  0  0  0  0  0  0
   -3.2770   -6.0417   -6.0928 N   0  0  0  0  0  0  0  0  0  0  0  0
   -4.4895   -5.4248   -6.2477 C   0  0  0  0  0  0  0  0  0  0  0  0
   -4.5467   -4.1352   -6.7808 C   0  0  0  0  0  0  0  0  0  0  0  0
   -3.3573   -3.4594   -7.0439 C   0  0  0  0  0  0  0  0  0  0  0  0
   -3.4206   -2.1811   -7.5431 O   0  0  0  0  0  0  0  0  0  0  0  0
   -5.6935   -3.4367   -7.0625 O   0  0  0  0  0  0  0  0  0  0  0  0
   -5.7195   -6.1854   -5.7997 C   0  0  1  0  0  0  0  0  0  0  0  0
   -6.3831   -7.0522   -6.7438 O   0  0  0  0  0  0  0  0  0  0  0  0
   -5.7501   -6.6743   -4.4331 O   0  0  0  0  0  0  0  0  0  0  0  0
   -6.5453   -5.6540   -4.7316 C   0  0  0  0  0  0  0  0  0  0  0  0
   -6.6934   -4.5328   -4.2822 O   0  0  0  0  0  0  0  0  0  0  0  0
    2.3172   -1.4477   -2.2890 C   0  0  0  0  0  0  0  0  0  0  0  0
    2.4040   -2.6607   -2.1545 O   0  0  0  0  0  0  0  0  0  0  0  0
    2.1803   -0.5601   -1.0732 C   0  0  0  0  0  0  0  0  0  0  0  0
    1.7014   -0.9840   -0.0332 O   0  0  0  0  0  0  0  0  0  0  0  0
    2.6224    0.8781   -1.1694 C   0  0  0  0  0  0  0  0  0  0  0  0
    3.0781    1.4884   -0.2184 O   0  0  0  0  0  0  0  0  0  0  0  0
  1  2  1  0  0  0  0
  2  3  2  0  0  0  0
  3  4  1  0  0  0  0
  3 51  1  0  0  0  0
  4  5  1  0  0  0  0
  5  6  1  6  0  0  0
  5 47  1  0  0  0  0
  6  7  1  0  0  0  0
  7  8  2  0  0  0  0
  7 12  1  0  0  0  0
  8  9  1  0  0  0  0
  8 26  1  0  0  0  0
  9 10  1  0  0  0  0
 10 11  2  0  0  0  0
 10 21  1  0  0  0  0
 11 12  1  0  0  0  0
 11 13  1  0  0  0  0
 13 14  1  0  0  0  0
 13 19  1  0  0  0  0
 14 15  1  0  0  0  0
 15 16  2  0  0  0  0
 15 17  1  0  0  0  0
 17 18  1  0  0  0  0
 18 19  1  0  0  0  0
 18 25  1  0  0  0  0
 19 20  2  0  0  0  0
 20 21  1  0  0  0  0
 20 22  1  0  0  0  0
 22 23  1  0  0  0  0
 22 24  1  0  0  0  0
 23 24  1  0  0  0  0
 26 27  2  0  0  0  0
 26 31  1  0  0  0  0
 27 28  1  0  0  0  0
 28 29  2  0  0  0  0
 29 30  1  0  0  0  0
 30 31  2  0  0  0  0
 30 35  1  0  0  0  0
 31 32  1  0  0  0  0
 32 33  2  0  0  0  0
 33 34  1  0  0  0  0
 33 39  1  0  0  0  0
 34 35  2  0  0  0  0
 34 36  1  0  0  0  0
 36 37  2  0  0  0  0
 37 38  1  0  0  0  0
 38 39  2  0  0  0  0
 38 41  1  0  0  0  0
 39 40  1  0  0  0  0
 42 37  1  6  0  0  0
 42 43  1  0  0  0  0
 42 44  1  0  0  0  0
 42 45  1  0  0  0  0
 44 45  1  0  0  0  0
 45 46  2  0  0  0  0
 47 48  2  0  0  0  0
 47 49  1  0  0  0  0
 49 50  2  0  0  0  0
 49 51  1  0  0  0  0
 51 52  2  0  0  0  0
M  END
$$$$