
 OpenBabel09252006563D

 57 66  0  0  1  0  0  0  0  0999 V2000
   -0.2355    0.7299   -6.6136 O   0  0  0  0  0  0  0  0  0  0  0  0
   -1.4902    1.0982   -6.1960 C   0  0  0  0  0  0  0  0  0  0  0  0
   -1.7198    1.9594   -5.1994 C   0  0  0  0  0  0  0  0  0  0  0  0
   -0.6564    2.5513   -4.5388 O   0  0  0  0  0  0  0  0  0  0  0  0
   -0.9274    3.9091   -4.1690 C   0  0  2  0  0  0  0  0  0  0  0  0
    0.2511    4.5613   -3.6914 O   0  0  0  0  0  0  0  0  0  0  0  0
    1.3147    4.6256   -4.5852 C   0  0  0  0  0  0  0  0  0  0  0  0
    2.5900    4.6331   -4.1448 C   0  0  0  0  0  0  0  0  0  0  0  0
    3.6943    4.7469   -4.9818 O   0  0  0  0  0  0  0  0  0  0  0  0
    3.4933    4.9465   -6.3377 C   0  0  0  0  0  0  0  0  0  0  0  0
    2.2602    4.9916   -6.8648 C   0  0  0  0  0  0  0  0  0  0  0  0
    1.0253    4.7938   -6.0574 C   0  0  0  0  0  0  0  0  0  0  0  0
    2.1297    5.2578   -8.3222 C   0  0  0  0  0  0  0  0  0  0  0  0
    0.9653    5.3097   -8.8800 N   0  0  0  0  0  0  0  0  0  0  0  0
    0.8812    5.5658  -10.2353 C   0  0  0  0  0  0  0  0  0  0  0  0
   -0.2301    5.5834  -10.7479 O   0  0  0  0  0  0  0  0  0  0  0  0
    1.9821    5.8031  -11.0361 N   0  0  0  0  0  0  0  0  0  0  0  0
    3.1542    5.7578  -10.5046 C   0  0  0  0  0  0  0  0  0  0  0  0
    3.3760    5.4630   -9.0905 C   0  0  0  0  0  0  0  0  0  0  0  0
    4.5715    5.3701   -8.4751 C   0  0  0  0  0  0  0  0  0  0  0  0
    4.6114    5.1033   -7.1146 N   0  0  0  0  0  0  0  0  0  0  0  0
    5.8814    5.5336   -9.1460 C   0  0  0  0  0  0  0  0  0  0  0  0
    6.5109    6.8175   -9.2622 O   0  0  0  0  0  0  0  0  0  0  0  0
    7.0853    5.8091   -8.4080 O   0  0  0  0  0  0  0  0  0  0  0  0
    2.9348    4.5979   -2.7152 C   0  0  0  0  0  0  0  0  0  0  0  0
    3.0888    3.3575   -2.2170 N   0  0  0  0  0  0  0  0  0  0  0  0
    3.4037    3.3113   -0.9283 C   0  0  0  0  0  0  0  0  0  0  0  0
    3.5737    4.3679   -0.1248 N   0  0  0  0  0  0  0  0  0  0  0  0
    3.4383    5.6200   -0.6133 C   0  0  0  0  0  0  0  0  0  0  0  0
    3.1062    5.7807   -1.9701 C   0  0  0  0  0  0  0  0  0  0  0  0
    2.9632    7.0695   -2.5231 C   0  0  0  0  0  0  0  0  0  0  0  0
    3.1784    8.1990   -1.7474 C   0  0  0  0  0  0  0  0  0  0  0  0
    3.0063    9.5292   -2.3466 C   0  0  0  0  0  0  0  0  0  0  0  0
    2.5197    9.6788   -3.4568 O   0  0  0  0  0  0  0  0  0  0  0  0
    3.5247   10.7121   -1.5661 C   0  0  0  0  0  0  0  0  0  0  0  0
    3.5223   11.8391   -2.0434 O   0  0  0  0  0  0  0  0  0  0  0  0
    4.2200   10.3602   -0.2801 C   0  0  1  0  0  0  0  0  0  0  0  0
    3.7005    9.1940    0.3663 O   0  0  0  0  0  0  0  0  0  0  0  0
    3.5363    8.0722   -0.4112 C   0  0  0  0  0  0  0  0  0  0  0  0
    3.6464    6.7853    0.2034 C   0  0  0  0  0  0  0  0  0  0  0  0
    3.9011    6.6911    1.5792 N   0  0  0  0  0  0  0  0  0  0  0  0
    3.9910    5.4279    2.3221 C   0  0  0  0  0  0  0  0  0  0  0  0
    4.4001    5.8849    3.7361 C   0  0  0  0  0  0  0  0  0  0  0  0
    5.3739    6.9592    3.4785 N   0  0  0  0  0  0  0  0  0  0  0  0
    4.8191    7.5978    2.2730 C   0  0  0  0  0  0  0  0  0  0  0  0
    5.5070    7.8833    4.5901 C   0  0  0  0  0  0  0  0  0  0  0  0
    5.7137   10.2926   -0.4271 C   0  0  1  0  0  0  0  0  0  0  0  0
    6.4575    9.9775    0.7737 O   0  0  0  0  0  0  0  0  0  0  0  0
    6.1870    9.7036   -1.6349 O   0  0  0  0  0  0  0  0  0  0  0  0
    6.4781   11.0130   -1.4511 C   0  0  0  0  0  0  0  0  0  0  0  0
    7.5636   11.5449   -1.3788 O   0  0  0  0  0  0  0  0  0  0  0  0
   -2.0218    3.9164   -3.1143 C   0  0  0  0  0  0  0  0  0  0  0  0
   -2.0018    4.5119   -2.0484 O   0  0  0  0  0  0  0  0  0  0  0  0
   -3.2304    3.1207   -3.5548 C   0  0  0  0  0  0  0  0  0  0  0  0
   -4.2752    3.1769   -2.9269 O   0  0  0  0  0  0  0  0  0  0  0  0
   -3.1251    2.2650   -4.8055 C   0  0  0  0  0  0  0  0  0  0  0  0
   -4.1087    1.9092   -5.4303 O   0  0  0  0  0  0  0  0  0  0  0  0
  1  2  1  0  0  0  0
  2  3  2  0  0  0  0
  3  4  1  0  0  0  0
  3 56  1  0  0  0  0
  4  5  1  0  0  0  0
  5  6  1  1  0  0  0
  5 52  1  0  0  0  0
  6  7  1  0  0  0  0
  7  8  2  0  0  0  0
  7 12  1  0  0  0  0
  8  9  1  0  0  0  0
  8 25  1  0  0  0  0
  9 10  1  0  0  0  0
 10 11  2  0  0  0  0
 10 21  1  0  0  0  0
 11 12  1  0  0  0  0
 11 13  1  0  0  0  0
 13 14  2  0  0  0  0
 13 19  1  0  0  0  0
 14 15  1  0  0  0  0
 15 16  2  0  0  0  0
 15 17  1  0  0  0  0
 17 18  2  0  0  0  0
 18 19  1  0  0  0  0
 19 20  2  0  0  0  0
 20 21  1  0  0  0  0
 20 22  1  0  0  0  0
 22 23  1  0  0  0  0
 22 24  1  0  0  0  0
 23 24  1  0  0  0  0
 25 26  2  0  0  0  0
 25 30  1  0  0  0  0
 26 27  1  0  0  0  0
 27 28  2  0  0  0  0
 28 29  1  0  0  0  0
 29 30  2  0  0  0  0
 29 40  1  0  0  0  0
 30 31  1  0  0  0  0
 31 32  2  0  0  0  0
 32 33  1  0  0  0  0
 32 39  1  0  0  0  0
 33 34  2  0  0  0  0
 33 35  1  0  0  0  0
 35 36  2  0  0  0  0
 37 35  1  6  0  0  0
 37 38  1  0  0  0  0
 37 47  1  0  0  0  0
 38 39  1  0  0  0  0
 39 40  2  0  0  0  0
 40 41  1  0  0  0  0
 41 42  1  0  0  0  0
 41 45  1  0  0  0  0
 42 43  1  0  0  0  0
 43 44  1  0  0  0  0
 44 45  1  0  0  0  0
 44 46  1  0  0  0  0
 47 48  1  1  0  0  0
 47 49  1  0  0  0  0
 47 50  1  0  0  0  0
 49 50  1  0  0  0  0
 50 51  2  0  0  0  0
 52 53  2  0  0  0  0
 52 54  1  0  0  0  0
 54 55  2  0  0  0  0
 54 56  1  0  0  0  0
 56 57  2  0  0  0  0
M  END
$$$$