
 OpenBabel11212020403D

 54 62  0  0  1  0  0  0  0  0999 V2000
   -1.8937   -2.3242   -3.5706 O   0  0  0  0  0  0  0  0  0  0  0  0
   -1.3151   -1.2941   -2.8724 C   0  0  0  0  0  0  0  0  0  0  0  0
   -0.1764   -1.4433   -2.1850 C   0  0  0  0  0  0  0  0  0  0  0  0
    0.4351   -2.6851   -2.1347 O   0  0  0  0  0  0  0  0  0  0  0  0
    1.8046   -2.7249   -1.7502 C   0  0  2  0  0  0  0  0  0  0  0  0
    2.2378   -4.0957   -1.6129 O   0  0  0  0  0  0  0  0  0  0  0  0
    2.1720   -4.8818   -2.7601 C   0  0  0  0  0  0  0  0  0  0  0  0
    1.9710   -6.2164   -2.6887 C   0  0  0  0  0  0  0  0  0  0  0  0
    1.9573   -7.0438   -3.8197 O   0  0  0  0  0  0  0  0  0  0  0  0
    2.3009   -6.5101   -5.0700 C   0  0  0  0  0  0  0  0  0  0  0  0
    2.5696   -5.1994   -5.2171 C   0  0  0  0  0  0  0  0  0  0  0  0
    2.4409   -4.2228   -4.0881 C   0  0  0  0  0  0  0  0  0  0  0  0
    3.0310   -4.6150   -6.5239 C   0  0  3  0  0  0  0  0  0  0  0  0
    4.3643   -4.1760   -6.3255 O   0  0  0  0  0  0  0  0  0  0  0  0
    5.0622   -3.7094   -7.3953 C   0  0  0  0  0  0  0  0  0  0  0  0
    6.1027   -3.0900   -7.2480 O   0  0  0  0  0  0  0  0  0  0  0  0
    4.5468   -3.9901   -8.6155 O   0  0  0  0  0  0  0  0  0  0  0  0
    3.5573   -4.9849   -8.8497 C   0  0  3  0  0  0  0  0  0  0  0  0
    3.0842   -5.6290   -7.5968 C   0  0  0  0  0  0  0  0  0  0  0  0
    2.7594   -6.9260   -7.4034 C   0  0  0  0  0  0  0  0  0  0  0  0
    2.3735   -7.3728   -6.1446 O   0  3  0  0  0  0  0  0  0  0  0  0
    2.8136   -7.9469   -8.4761 C   0  0  0  0  0  0  0  0  0  0  0  0
    4.0035   -8.7126   -8.7019 O   0  0  0  0  0  0  0  0  0  0  0  0
    2.8320   -9.3474   -8.1535 O   0  0  0  0  0  0  0  0  0  0  0  0
    2.4091   -4.3725   -9.4011 O   0  0  0  0  0  0  0  0  0  0  0  0
    1.8256   -6.9200   -1.3887 C   0  0  0  0  0  0  0  0  0  0  0  0
    2.9947   -7.3787   -0.8852 N   0  0  0  0  0  0  0  0  0  0  0  0
    2.9946   -7.9140    0.3307 N   0  3  0  0  0  0  0  0  0  0  0  0
    4.1609   -8.3580    0.8377 F   0  0  0  0  0  0  0  0  0  0  0  0
    1.8898   -8.0272    1.0720 C   0  0  0  0  0  0  0  0  0  0  0  0
    0.6554   -7.6015    0.5925 C   0  0  0  0  0  0  0  0  0  0  0  0
    0.6030   -7.0397   -0.6979 C   0  0  0  0  0  0  0  0  0  0  0  0
   -0.6571   -6.6274   -1.1869 C   0  0  0  0  0  0  0  0  0  0  0  0
   -1.8064   -6.7157   -0.3846 C   0  0  0  0  0  0  0  0  0  0  0  0
   -3.0941   -6.2427   -0.8981 C   0  0  0  0  0  0  0  0  0  0  0  0
   -3.2100   -5.8756   -2.0559 O   0  0  0  0  0  0  0  0  0  0  0  0
   -4.2539   -6.2387    0.0695 C   0  0  0  0  0  0  0  0  0  0  0  0
   -5.4024   -6.1938   -0.3433 O   0  0  0  0  0  0  0  0  0  0  0  0
   -3.8524   -6.2901    1.5255 C   0  0  1  0  0  0  0  0  0  0  0  0
   -2.7940   -7.2359    1.7809 O   0  0  0  0  0  0  0  0  0  0  0  0
   -1.7359   -7.2144    0.9091 C   0  0  0  0  0  0  0  0  0  0  0  0
   -0.5021   -7.6658    1.4045 C   0  0  0  0  0  0  0  0  0  0  0  0
   -0.4373   -8.3016    2.6729 N   0  0  0  0  0  0  0  0  0  0  0  0
   -3.5839   -4.9156    2.0967 C   0  0  1  0  0  0  0  0  0  0  0  0
   -4.6882   -3.9926    2.0606 O   0  0  0  0  0  0  0  0  0  0  0  0
   -2.8090   -4.8858    3.3066 O   0  0  0  0  0  0  0  0  0  0  0  0
   -2.2732   -4.3139    2.2264 C   0  0  0  0  0  0  0  0  0  0  0  0
   -1.2163   -4.4906    1.6390 O   0  0  0  0  0  0  0  0  0  0  0  0
    2.0043   -1.9672   -0.4539 C   0  0  0  0  0  0  0  0  0  0  0  0
    2.4459   -2.4109    0.5924 O   0  0  0  0  0  0  0  0  0  0  0  0
    1.5796   -0.5343   -0.6135 C   0  0  0  0  0  0  0  0  0  0  0  0
    2.2872    0.3620   -0.1897 O   0  0  0  0  0  0  0  0  0  0  0  0
    0.3419   -0.2544   -1.4409 C   0  0  0  0  0  0  0  0  0  0  0  0
   -0.1635    0.8532   -1.4879 O   0  0  0  0  0  0  0  0  0  0  0  0
  1  2  1  0  0  0  0
  2  3  2  0  0  0  0
  3  4  1  0  0  0  0
  3 53  1  0  0  0  0
  4  5  1  0  0  0  0
  5  6  1  1  0  0  0
  5 49  1  0  0  0  0
  6  7  1  0  0  0  0
  7  8  2  0  0  0  0
  7 12  1  0  0  0  0
  8  9  1  0  0  0  0
  8 26  1  0  0  0  0
  9 10  1  0  0  0  0
 10 11  2  0  0  0  0
 10 21  1  0  0  0  0
 11 12  1  0  0  0  0
 11 13  1  0  0  0  0
 13 14  1  0  0  0  0
 13 19  1  0  0  0  0
 14 15  1  0  0  0  0
 15 16  2  0  0  0  0
 15 17  1  0  0  0  0
 17 18  1  0  0  0  0
 18 19  1  0  0  0  0
 18 25  1  0  0  0  0
 19 20  2  0  0  0  0
 20 21  1  0  0  0  0
 20 22  1  0  0  0  0
 22 23  1  0  0  0  0
 22 24  1  0  0  0  0
 23 24  1  0  0  0  0
 26 27  2  0  0  0  0
 26 32  1  0  0  0  0
 27 28  1  0  0  0  0
 28 29  1  0  0  0  0
 28 30  2  0  0  0  0
 30 31  1  0  0  0  0
 31 32  2  0  0  0  0
 31 42  1  0  0  0  0
 32 33  1  0  0  0  0
 33 34  2  0  0  0  0
 34 35  1  0  0  0  0
 34 41  1  0  0  0  0
 35 36  2  0  0  0  0
 35 37  1  0  0  0  0
 37 38  2  0  0  0  0
 39 37  1  6  0  0  0
 39 40  1  0  0  0  0
 39 44  1  0  0  0  0
 40 41  1  0  0  0  0
 41 42  2  0  0  0  0
 42 43  1  0  0  0  0
 44 45  1  6  0  0  0
 44 46  1  0  0  0  0
 44 47  1  0  0  0  0
 46 47  1  0  0  0  0
 47 48  2  0  0  0  0
 49 50  2  0  0  0  0
 49 51  1  0  0  0  0
 51 52  2  0  0  0  0
 51 53  1  0  0  0  0
 53 54  2  0  0  0  0
M  CHG  2  21   1  28   1
M  END
$$$$