
 OpenBabel11222021503D

 54 62  0  0  1  0  0  0  0  0999 V2000
   -1.0244    6.1039   -1.6293 O   0  0  0  0  0  0  0  0  0  0  0  0
   -1.0689    4.7680   -1.3116 C   0  0  0  0  0  0  0  0  0  0  0  0
    0.0262    4.0538   -1.0293 C   0  0  0  0  0  0  0  0  0  0  0  0
    1.2852    4.6256   -1.0644 O   0  0  0  0  0  0  0  0  0  0  0  0
    2.1600    4.1242   -0.0546 C   0  0  2  0  0  0  0  0  0  0  0  0
    3.4043    4.8650    0.0003 O   0  0  0  0  0  0  0  0  0  0  0  0
    3.3461    6.2198    0.3051 C   0  0  0  0  0  0  0  0  0  0  0  0
    4.3904    6.8404    0.8948 C   0  0  0  0  0  0  0  0  0  0  0  0
    4.3928    8.2044    1.1968 O   0  0  0  0  0  0  0  0  0  0  0  0
    3.3212    9.0065    0.7886 C   0  0  0  0  0  0  0  0  0  0  0  0
    2.2584    8.4811    0.1526 C   0  0  0  0  0  0  0  0  0  0  0  0
    2.1273    7.0116   -0.1058 C   0  0  0  0  0  0  0  0  0  0  0  0
    1.1499    9.3388   -0.3957 C   0  0  3  0  0  0  0  0  0  0  0  0
   -0.0786    8.9521    0.1893 O   0  0  0  0  0  0  0  0  0  0  0  0
   -1.1703    9.5777   -0.3394 C   0  0  0  0  0  0  0  0  0  0  0  0
   -2.2926    9.1099   -0.2522 O   0  0  0  0  0  0  0  0  0  0  0  0
   -0.8952   10.7311   -1.0022 O   0  0  0  0  0  0  0  0  0  0  0  0
    0.1659   11.5579   -0.5360 C   0  0  3  0  0  0  0  0  0  0  0  0
    1.3215   10.7629   -0.0308 C   0  0  0  0  0  0  0  0  0  0  0  0
    2.3824   11.2228    0.6698 C   0  0  0  0  0  0  0  0  0  0  0  0
    3.3961   10.3565    1.0521 O   0  3  0  0  0  0  0  0  0  0  0  0
    2.5674   12.6443    1.0475 C   0  0  0  0  0  0  0  0  0  0  0  0
    3.8926   13.1794    1.2163 O   0  0  0  0  0  0  0  0  0  0  0  0
    3.0661   13.6132    0.1192 O   0  0  0  0  0  0  0  0  0  0  0  0
    0.6828   12.2901   -1.6282 O   0  0  0  0  0  0  0  0  0  0  0  0
    5.6251    6.1207    1.2884 C   0  0  0  0  0  0  0  0  0  0  0  0
    6.6679    6.0130    0.3713 C   0  0  0  0  0  0  0  0  0  0  0  0
    7.7876    5.3491    0.6850 N   0  3  0  0  0  0  0  0  0  0  0  0
    8.7852    5.2782   -0.2178 F   0  0  0  0  0  0  0  0  0  0  0  0
    7.9609    4.7590    1.8527 N   0  0  0  0  0  0  0  0  0  0  0  0
    6.9888    4.7986    2.7693 C   0  0  0  0  0  0  0  0  0  0  0  0
    5.7844    5.4890    2.5393 C   0  0  0  0  0  0  0  0  0  0  0  0
    4.8081    5.4985    3.5606 C   0  0  0  0  0  0  0  0  0  0  0  0
    5.0147    4.8143    4.7689 C   0  0  0  0  0  0  0  0  0  0  0  0
    3.9765    4.8337    5.7967 C   0  0  0  0  0  0  0  0  0  0  0  0
    2.9590    5.4869    5.6286 O   0  0  0  0  0  0  0  0  0  0  0  0
    4.2208    4.0244    7.0463 C   0  0  0  0  0  0  0  0  0  0  0  0
    3.2897    3.7545    7.7885 O   0  0  0  0  0  0  0  0  0  0  0  0
    5.6655    3.6571    7.2985 C   0  0  1  0  0  0  0  0  0  0  0  0
    6.4689    3.4238    6.1304 O   0  0  0  0  0  0  0  0  0  0  0  0
    6.1866    4.1203    4.9925 C   0  0  0  0  0  0  0  0  0  0  0  0
    7.1580    4.1319    3.9868 C   0  0  0  0  0  0  0  0  0  0  0  0
    8.3112    3.4773    4.1984 F   0  0  0  0  0  0  0  0  0  0  0  0
    6.2928    4.6395    8.2496 C   0  0  1  0  0  0  0  0  0  0  0  0
    5.7209    4.7369    9.5130 F   0  0  0  0  0  0  0  0  0  0  0  0
    7.7270    4.7308    8.2044 O   0  0  0  0  0  0  0  0  0  0  0  0
    7.0326    5.7946    7.7820 C   0  0  0  0  0  0  0  0  0  0  0  0
    7.0135    6.3759    6.7093 O   0  0  0  0  0  0  0  0  0  0  0  0
    2.4712    2.6705   -0.3804 C   0  0  0  0  0  0  0  0  0  0  0  0
    3.5784    2.1581   -0.2967 O   0  0  0  0  0  0  0  0  0  0  0  0
    1.2360    1.8926   -0.7992 C   0  0  0  0  0  0  0  0  0  0  0  0
    1.3244    0.7566   -1.2279 O   0  0  0  0  0  0  0  0  0  0  0  0
   -0.1042    2.6028   -0.7326 C   0  0  0  0  0  0  0  0  0  0  0  0
   -1.1319    2.0497   -0.3944 O   0  0  0  0  0  0  0  0  0  0  0  0
  1  2  1  0  0  0  0
  2  3  2  0  0  0  0
  3  4  1  0  0  0  0
  3 53  1  0  0  0  0
  4  5  1  0  0  0  0
  5  6  1  6  0  0  0
  5 49  1  0  0  0  0
  6  7  1  0  0  0  0
  7  8  2  0  0  0  0
  7 12  1  0  0  0  0
  8  9  1  0  0  0  0
  8 26  1  0  0  0  0
  9 10  1  0  0  0  0
 10 11  2  0  0  0  0
 10 21  1  0  0  0  0
 11 12  1  0  0  0  0
 11 13  1  0  0  0  0
 13 14  1  0  0  0  0
 13 19  1  0  0  0  0
 14 15  1  0  0  0  0
 15 16  2  0  0  0  0
 15 17  1  0  0  0  0
 17 18  1  0  0  0  0
 18 19  1  0  0  0  0
 18 25  1  0  0  0  0
 19 20  2  0  0  0  0
 20 21  1  0  0  0  0
 20 22  1  0  0  0  0
 22 23  1  0  0  0  0
 22 24  1  0  0  0  0
 23 24  1  0  0  0  0
 26 27  2  0  0  0  0
 26 32  1  0  0  0  0
 27 28  1  0  0  0  0
 28 29  1  0  0  0  0
 28 30  2  0  0  0  0
 30 31  1  0  0  0  0
 31 32  2  0  0  0  0
 31 42  1  0  0  0  0
 32 33  1  0  0  0  0
 33 34  2  0  0  0  0
 34 35  1  0  0  0  0
 34 41  1  0  0  0  0
 35 36  2  0  0  0  0
 35 37  1  0  0  0  0
 37 38  2  0  0  0  0
 39 37  1  6  0  0  0
 39 40  1  0  0  0  0
 39 44  1  0  0  0  0
 40 41  1  0  0  0  0
 41 42  2  0  0  0  0
 42 43  1  0  0  0  0
 44 45  1  1  0  0  0
 44 46  1  0  0  0  0
 44 47  1  0  0  0  0
 46 47  1  0  0  0  0
 47 48  2  0  0  0  0
 49 50  2  0  0  0  0
 49 51  1  0  0  0  0
 51 52  2  0  0  0  0
 51 53  1  0  0  0  0
 53 54  2  0  0  0  0
M  CHG  2  21   1  28   1
M  END
$$$$