
 OpenBabel11252003043D

 54 63  0  0  1  0  0  0  0  0999 V2000
    6.9899   -8.7399  -17.7669 O   0  0  0  0  0  0  0  0  0  0  0  0
    5.6713   -8.4351  -17.9964 C   0  0  0  0  0  0  0  0  0  0  0  0
    4.9124   -7.7600  -17.1256 C   0  0  0  0  0  0  0  0  0  0  0  0
    5.4043   -7.3581  -15.8909 O   0  0  0  0  0  0  0  0  0  0  0  0
    5.0459   -6.0272  -15.5660 C   0  0  2  0  0  0  0  0  0  0  0  0
    5.4385   -5.7162  -14.2013 O   0  0  0  0  0  0  0  0  0  0  0  0
    6.7272   -5.2856  -13.9374 C   0  0  0  0  0  0  0  0  0  0  0  0
    7.0075   -4.5322  -12.8451 C   0  0  0  0  0  0  0  0  0  0  0  0
    8.3242   -4.1075  -12.5809 O   0  0  0  0  0  0  0  0  0  0  0  0
    9.3704   -4.3829  -13.4678 C   0  0  0  0  0  0  0  0  0  0  0  0
    9.1623   -5.1315  -14.5592 C   0  0  0  0  0  0  0  0  0  0  0  0
    7.8078   -5.6782  -14.9121 C   0  0  0  0  0  0  0  0  0  0  0  0
   10.2695   -5.5078  -15.4830 C   0  0  3  0  0  0  0  0  0  0  0  0
    9.9094   -5.2061  -16.8189 O   0  0  0  0  0  0  0  0  0  0  0  0
   10.7660   -5.7567  -17.7322 C   0  0  0  0  0  0  0  0  0  0  0  0
   10.4588   -6.0142  -18.8760 O   0  0  0  0  0  0  0  0  0  0  0  0
   12.0219   -5.9373  -17.2213 O   0  0  0  0  0  0  0  0  0  0  0  0
   12.4029   -4.8565  -16.4225 C   0  0  3  0  0  0  0  0  0  0  0  0
   11.5279   -4.7224  -15.2054 C   0  0  0  0  0  0  0  0  0  0  0  0
   11.7280   -3.9760  -14.0793 C   0  0  0  0  0  0  0  0  0  0  0  0
   10.6263   -3.8559  -13.1655 O   0  3  0  0  0  0  0  0  0  0  0  0
   13.0104   -3.2010  -13.7719 C   0  0  0  0  0  0  0  0  0  0  0  0
   14.2372   -3.1762  -14.6657 N   0  3  0  0  0  0  0  0  0  0  0  0
   14.3710   -3.8707  -13.8176 N   0  3  0  0  0  0  0  0  0  0  0  0
   13.7259   -5.0513  -15.9285 O   0  0  0  0  0  0  0  0  0  0  0  0
    5.9559   -4.0324  -11.8706 C   0  0  0  0  0  0  0  0  0  0  0  0
    4.8189   -4.8116  -11.6136 C   0  0  0  0  0  0  0  0  0  0  0  0
    3.8167   -4.3631  -10.8483 N   0  3  0  0  0  0  0  0  0  0  0  0
    2.7281   -5.1380  -10.6715 F   0  0  0  0  0  0  0  0  0  0  0  0
    3.8517   -3.1890  -10.2542 N   0  0  0  0  0  0  0  0  0  0  0  0
    4.9178   -2.4028  -10.3917 C   0  0  0  0  0  0  0  0  0  0  0  0
    6.0212   -2.7779  -11.1919 C   0  0  0  0  0  0  0  0  0  0  0  0
    7.1015   -1.8612  -11.2531 C   0  0  0  0  0  0  0  0  0  0  0  0
    7.1177   -0.6642  -10.5245 C   0  0  0  0  0  0  0  0  0  0  0  0
    6.0355   -0.3106   -9.7547 C   0  0  0  0  0  0  0  0  0  0  0  0
    4.9408   -1.1728   -9.7190 C   0  0  0  0  0  0  0  0  0  0  0  0
    3.8741   -0.8238   -8.9859 F   0  0  0  0  0  0  0  0  0  0  0  0
    5.9931    0.8670   -9.0625 O   0  0  0  0  0  0  0  0  0  0  0  0
    7.2842    1.3321   -8.5860 C   0  0  1  0  0  0  0  0  0  0  0  0
    8.3974    1.3310   -9.5599 C   0  0  0  0  0  0  0  0  0  0  0  0
    9.4053    2.0150   -9.4933 O   0  0  0  0  0  0  0  0  0  0  0  0
    8.3169    0.1813  -10.5499 C   0  0  0  0  0  0  0  0  0  0  0  0
    9.2566   -0.1495  -11.2713 O   0  0  0  0  0  0  0  0  0  0  0  0
    7.2508    2.3846   -7.6600 O   0  0  0  0  0  0  0  0  0  0  0  0
    7.6629    1.0837   -7.1472 C   0  0  1  0  0  0  0  0  0  0  0  0
    6.6545    0.1633   -6.6235 O   0  0  0  0  0  0  0  0  0  0  0  0
    7.1964    1.0162   -5.7805 C   0  0  0  0  0  0  0  0  0  0  0  0
    7.7978    0.7982   -4.7397 O   0  0  0  0  0  0  0  0  0  0  0  0
    3.5635   -5.7064  -15.6158 C   0  0  0  0  0  0  0  0  0  0  0  0
    3.0634   -4.7349  -15.0636 O   0  0  0  0  0  0  0  0  0  0  0  0
    2.7708   -6.7005  -16.4225 C   0  0  0  0  0  0  0  0  0  0  0  0
    1.6217   -6.9519  -16.1126 O   0  0  0  0  0  0  0  0  0  0  0  0
    3.5014   -7.4598  -17.5069 C   0  0  0  0  0  0  0  0  0  0  0  0
    3.0004   -7.7046  -18.5861 O   0  0  0  0  0  0  0  0  0  0  0  0
  1  2  1  0  0  0  0
  2  3  2  0  0  0  0
  3  4  1  0  0  0  0
  3 53  1  0  0  0  0
  4  5  1  0  0  0  0
  5  6  1  1  0  0  0
  5 49  1  0  0  0  0
  6  7  1  0  0  0  0
  7  8  2  0  0  0  0
  7 12  1  0  0  0  0
  8  9  1  0  0  0  0
  8 26  1  0  0  0  0
  9 10  1  0  0  0  0
 10 11  2  0  0  0  0
 10 21  1  0  0  0  0
 11 12  1  0  0  0  0
 11 13  1  0  0  0  0
 13 14  1  0  0  0  0
 13 19  1  0  0  0  0
 14 15  1  0  0  0  0
 15 16  2  0  0  0  0
 15 17  1  0  0  0  0
 17 18  1  0  0  0  0
 18 19  1  0  0  0  0
 18 25  1  0  0  0  0
 19 20  2  0  0  0  0
 20 21  1  0  0  0  0
 20 22  1  0  0  0  0
 22 23  1  0  0  0  0
 22 24  1  0  0  0  0
 23 24  3  0  0  0  0
 26 27  2  0  0  0  0
 26 32  1  0  0  0  0
 27 28  1  0  0  0  0
 28 29  1  0  0  0  0
 28 30  2  0  0  0  0
 30 31  1  0  0  0  0
 31 32  2  0  0  0  0
 31 36  1  0  0  0  0
 32 33  1  0  0  0  0
 33 34  2  0  0  0  0
 34 35  1  0  0  0  0
 34 42  1  0  0  0  0
 35 36  2  0  0  0  0
 35 38  1  0  0  0  0
 36 37  1  0  0  0  0
 39 38  1  6  0  0  0
 39 40  1  0  0  0  0
 39 44  1  0  0  0  0
 39 45  1  0  0  0  0
 40 41  2  0  0  0  0
 40 42  1  0  0  0  0
 42 43  2  0  0  0  0
 45 44  1  1  0  0  0
 45 46  1  0  0  0  0
 45 47  1  0  0  0  0
 46 47  1  0  0  0  0
 47 48  2  0  0  0  0
 49 50  2  0  0  0  0
 49 51  1  0  0  0  0
 51 52  2  0  0  0  0
 51 53  1  0  0  0  0
 53 54  2  0  0  0  0
M  CHG  4  21   1  23   1  24   1  28   1
M  END
$$$$