
 OpenBabel11272001203D

 54 63  0  0  1  0  0  0  0  0999 V2000
   -2.7537    3.5325    2.5632 F   0  0  0  0  0  0  0  0  0  0  0  0
   -2.0933    2.3711    2.7280 C   0  0  0  0  0  0  0  0  0  0  0  0
   -0.8654    2.1876    2.2370 C   0  0  0  0  0  0  0  0  0  0  0  0
   -0.2517    3.1850    1.5092 O   0  0  0  0  0  0  0  0  0  0  0  0
    1.1640    3.1001    1.3923 C   0  0  2  0  0  0  0  0  0  0  0  0
    1.6459    4.1075    0.4941 O   0  0  0  0  0  0  0  0  0  0  0  0
    1.5264    5.4367    0.8944 C   0  0  0  0  0  0  0  0  0  0  0  0
    1.4606    6.4408   -0.0081 C   0  0  0  0  0  0  0  0  0  0  0  0
    1.4044    7.7888    0.3280 O   0  0  0  0  0  0  0  0  0  0  0  0
    1.5944    8.1525    1.6434 C   0  0  0  0  0  0  0  0  0  0  0  0
    1.6872    7.2199    2.6499 C   0  0  0  0  0  0  0  0  0  0  0  0
    1.5815    5.7601    2.3623 C   0  0  0  0  0  0  0  0  0  0  0  0
    1.8986    7.7060    3.9344 C   0  0  0  0  0  0  0  0  0  0  0  0
    1.9486    6.7823    4.9856 O   0  0  0  0  0  0  0  0  0  0  0  0
    2.4914    7.1055    6.2292 C   0  0  0  0  0  0  0  0  0  0  0  0
    2.6741    6.2416    7.0769 O   0  0  0  0  0  0  0  0  0  0  0  0
    2.8801    8.3912    6.3924 O   0  0  0  0  0  0  0  0  0  0  0  0
    2.2917    9.4425    5.6208 C   0  0  3  0  0  0  0  0  0  0  0  0
    2.0446    9.0532    4.2027 C   0  0  0  0  0  0  0  0  0  0  0  0
    1.9275    9.9467    3.1323 C   0  0  0  0  0  0  0  0  0  0  0  0
    1.6991    9.4807    1.8678 N   0  0  0  0  0  0  0  0  0  0  0  0
    2.0836   11.4430    3.2767 C   0  0  0  0  0  0  0  0  0  0  0  0
    0.9539   12.2552    2.9130 O   0  0  0  0  0  0  0  0  0  0  0  0
    1.3398   12.1271    4.2938 O   0  0  0  0  0  0  0  0  0  0  0  0
    1.1096    9.8884    6.2611 O   0  0  0  0  0  0  0  0  0  0  0  0
    1.5055    6.2040   -1.4646 C   0  0  0  0  0  0  0  0  0  0  0  0
    2.7587    6.2535   -1.9820 N   0  0  0  0  0  0  0  0  0  0  0  0
    2.8969    5.9839   -3.2915 C   0  0  0  0  0  0  0  0  0  0  0  0
    4.1314    6.0439   -3.8099 F   0  0  0  0  0  0  0  0  0  0  0  0
    1.8539    5.6427   -4.1261 C   0  0  0  0  0  0  0  0  0  0  0  0
    0.5621    5.5874   -3.5993 C   0  0  0  0  0  0  0  0  0  0  0  0
    0.3519    5.9139   -2.2346 C   0  0  0  0  0  0  0  0  0  0  0  0
   -0.9782    5.9289   -1.7496 C   0  0  0  0  0  0  0  0  0  0  0  0
   -2.0224    5.5537   -2.5922 C   0  0  0  0  0  0  0  0  0  0  0  0
   -3.3768    5.5510   -2.1952 C   0  0  0  0  0  0  0  0  0  0  0  0
   -4.2221    5.9005   -1.3031 N   0  0  0  0  0  0  0  0  0  0  0  0
   -5.2829    5.2693   -2.1050 N   0  0  0  0  0  0  0  0  0  0  0  0
   -4.3961    4.9520   -2.9687 C   0  0  0  0  0  0  0  0  0  0  0  0
   -4.0754    4.2297   -4.1938 C   0  0  1  0  0  0  0  0  0  0  0  0
   -2.8166    4.7025   -4.7557 O   0  0  0  0  0  0  0  0  0  0  0  0
   -1.8170    5.1342   -3.9079 C   0  0  0  0  0  0  0  0  0  0  0  0
   -0.5223    5.1984   -4.4084 C   0  0  0  0  0  0  0  0  0  0  0  0
   -0.3012    4.8593   -5.6895 F   0  0  0  0  0  0  0  0  0  0  0  0
   -3.9926    2.7539   -3.9465 C   0  0  1  0  0  0  0  0  0  0  0  0
   -3.0078    2.2992   -2.9914 O   0  0  0  0  0  0  0  0  0  0  0  0
   -5.2418    2.0609   -3.8509 O   0  0  0  0  0  0  0  0  0  0  0  0
   -4.4845    1.8070   -4.9358 C   0  0  0  0  0  0  0  0  0  0  0  0
   -4.7555    1.9128   -6.1050 O   0  0  0  0  0  0  0  0  0  0  0  0
    1.5720    1.7004    0.9227 C   0  0  0  0  0  0  0  0  0  0  0  0
    2.3046    1.4912   -0.0434 O   0  0  0  0  0  0  0  0  0  0  0  0
    1.1180    0.5987    1.8467 C   0  0  3  0  0  0  0  0  0  0  0  0
   -0.2332    0.8526    2.4684 C   0  0  0  0  0  0  0  0  0  0  0  0
   -0.7922    0.0102    3.1711 O   0  0  0  0  0  0  0  0  0  0  0  0
    1.1531   -0.6243    1.2370 F   0  0  0  0  0  0  0  0  0  0  0  0
  1  2  1  0  0  0  0
  2  3  2  0  0  0  0
  3  4  1  0  0  0  0
  3 52  1  0  0  0  0
  4  5  1  0  0  0  0
  5  6  1  6  0  0  0
  5 49  1  0  0  0  0
  6  7  1  0  0  0  0
  7  8  2  0  0  0  0
  7 12  1  0  0  0  0
  8  9  1  0  0  0  0
  8 26  1  0  0  0  0
  9 10  1  0  0  0  0
 10 11  2  0  0  0  0
 10 21  1  0  0  0  0
 11 12  1  0  0  0  0
 11 13  1  0  0  0  0
 13 14  1  0  0  0  0
 13 19  2  0  0  0  0
 14 15  1  0  0  0  0
 15 16  2  0  0  0  0
 15 17  1  0  0  0  0
 17 18  1  0  0  0  0
 18 19  1  0  0  0  0
 18 25  1  0  0  0  0
 19 20  1  0  0  0  0
 20 21  2  0  0  0  0
 20 22  1  0  0  0  0
 22 23  1  0  0  0  0
 22 24  1  0  0  0  0
 23 24  1  0  0  0  0
 26 27  2  0  0  0  0
 26 32  1  0  0  0  0
 27 28  1  0  0  0  0
 28 29  1  0  0  0  0
 28 30  2  0  0  0  0
 30 31  1  0  0  0  0
 31 32  2  0  0  0  0
 31 42  1  0  0  0  0
 32 33  1  0  0  0  0
 33 34  2  0  0  0  0
 34 35  1  0  0  0  0
 34 41  1  0  0  0  0
 35 36  2  0  0  0  0
 35 38  1  0  0  0  0
 36 37  1  0  0  0  0
 37 38  2  0  0  0  0
 39 38  1  1  0  0  0
 39 40  1  0  0  0  0
 39 44  1  0  0  0  0
 40 41  1  0  0  0  0
 41 42  2  0  0  0  0
 42 43  1  0  0  0  0
 44 45  1  1  0  0  0
 44 46  1  0  0  0  0
 44 47  1  0  0  0  0
 46 47  1  0  0  0  0
 47 48  2  0  0  0  0
 49 50  2  0  0  0  0
 49 51  1  0  0  0  0
 51 52  1  0  0  0  0
 51 54  1  0  0  0  0
 52 53  2  0  0  0  0
M  END
$$$$