
 OpenBabel11262001093D

 54 63  0  0  1  0  0  0  0  0999 V2000
   -4.4721  -18.6371    7.7438 O   0  0  0  0  0  0  0  0  0  0  0  0
   -4.8290  -18.2520    9.0152 C   0  0  0  0  0  0  0  0  0  0  0  0
   -4.9967  -16.9724    9.3721 C   0  0  0  0  0  0  0  0  0  0  0  0
   -4.7807  -15.9620    8.4570 O   0  0  0  0  0  0  0  0  0  0  0  0
   -5.6503  -14.8457    8.6066 C   0  0  2  0  0  0  0  0  0  0  0  0
   -5.3058  -13.8408    7.5954 O   0  0  0  0  0  0  0  0  0  0  0  0
   -5.3341  -14.2513    6.2601 C   0  0  0  0  0  0  0  0  0  0  0  0
   -4.7648  -13.5008    5.2881 C   0  0  0  0  0  0  0  0  0  0  0  0
   -5.0000  -13.7776    3.9156 O   0  0  0  0  0  0  0  0  0  0  0  0
   -5.8184  -14.8713    3.5360 C   0  0  0  0  0  0  0  0  0  0  0  0
   -6.2836  -15.7302    4.4620 C   0  0  0  0  0  0  0  0  0  0  0  0
   -6.0454  -15.5405    5.9204 C   0  0  0  0  0  0  0  0  0  0  0  0
   -7.0803  -16.9677    4.1068 C   0  0  3  0  0  0  0  0  0  0  0  0
   -8.2847  -16.9471    4.8485 O   0  0  0  0  0  0  0  0  0  0  0  0
   -9.1356  -17.9643    4.5867 C   0  0  0  0  0  0  0  0  0  0  0  0
   -9.9945  -18.3083    5.4650 N   0  0  0  0  0  0  0  0  0  0  0  0
   -9.0655  -18.5852    3.3920 O   0  0  0  0  0  0  0  0  0  0  0  0
   -8.3571  -18.0727    2.3712 C   0  0  0  0  0  0  0  0  0  0  0  0
   -8.3821  -18.5225    1.2356 O   0  0  0  0  0  0  0  0  0  0  0  0
   -7.4500  -16.9682    2.6874 C   0  0  0  0  0  0  0  0  0  0  0  0
   -7.0076  -16.0600    1.7921 C   0  0  0  0  0  0  0  0  0  0  0  0
   -6.1307  -15.0532    2.1959 O   0  3  0  0  0  0  0  0  0  0  0  0
   -7.4392  -15.9775    0.3725 C   0  0  0  0  0  0  0  0  0  0  0  0
   -8.5090  -15.0991   -0.0027 O   0  0  0  0  0  0  0  0  0  0  0  0
   -7.1579  -14.7797   -0.3806 O   0  0  0  0  0  0  0  0  0  0  0  0
   -3.9222  -12.2759    5.5702 C   0  0  0  0  0  0  0  0  0  0  0  0
   -4.1747  -11.1144    4.8185 C   0  0  0  0  0  0  0  0  0  0  0  0
   -3.5237   -9.9778    5.0845 N   0  3  0  0  0  0  0  0  0  0  0  0
   -3.7673   -8.8809    4.3362 F   0  0  0  0  0  0  0  0  0  0  0  0
   -2.6684   -9.8805    6.0775 N   0  0  0  0  0  0  0  0  0  0  0  0
   -2.3893  -10.9664    6.8168 C   0  0  0  0  0  0  0  0  0  0  0  0
   -2.9486  -12.2150    6.5559 N   0  3  0  0  0  0  0  0  0  0  0  0
   -2.5084  -13.2889    7.2834 C   0  0  0  0  0  0  0  0  0  0  0  0
   -1.6642  -13.1329    8.3826 C   0  0  0  0  0  0  0  0  0  0  0  0
   -1.1526  -11.8987    8.7078 C   0  0  0  0  0  0  0  0  0  0  0  0
   -1.5069  -10.8316    7.8971 C   0  0  0  0  0  0  0  0  0  0  0  0
   -1.0096   -9.6159    8.1643 F   0  0  0  0  0  0  0  0  0  0  0  0
   -0.3320  -11.6707    9.7807 O   0  0  0  0  0  0  0  0  0  0  0  0
    0.1117  -12.8500   10.5167 C   0  0  1  0  0  0  0  0  0  0  0  0
   -0.8650  -13.9398   10.6195 C   0  0  0  0  0  0  0  0  0  0  0  0
   -1.3545  -14.3638   11.6465 O   0  0  0  0  0  0  0  0  0  0  0  0
   -1.3970  -14.2798    9.2482 C   0  0  0  0  0  0  0  0  0  0  0  0
   -1.6673  -15.4005    8.8641 O   0  0  0  0  0  0  0  0  0  0  0  0
    1.4305  -13.2654   10.2801 O   0  0  0  0  0  0  0  0  0  0  0  0
    1.1190  -12.7116   11.6071 C   0  0  1  0  0  0  0  0  0  0  0  0
    1.3534  -11.2600   11.7975 O   0  0  0  0  0  0  0  0  0  0  0  0
    2.3172  -12.0962   12.0887 C   0  0  0  0  0  0  0  0  0  0  0  0
    3.0019  -12.2649   13.0781 O   0  0  0  0  0  0  0  0  0  0  0  0
   -5.4733  -14.2418    9.9924 C   0  0  3  0  0  0  0  0  0  0  0  0
   -5.8858  -15.2477   11.0538 C   0  0  3  0  0  0  0  0  0  0  0  0
   -5.4324  -16.6653   10.7744 C   0  0  0  0  0  0  0  0  0  0  0  0
   -5.5386  -17.5616   11.6069 O   0  0  0  0  0  0  0  0  0  0  0  0
   -5.4978  -14.7787   12.2699 F   0  0  0  0  0  0  0  0  0  0  0  0
   -4.1579  -13.8814   10.1134 F   0  0  0  0  0  0  0  0  0  0  0  0
  1  2  1  0  0  0  0
  2  3  2  0  0  0  0
  3  4  1  0  0  0  0
  3 51  1  0  0  0  0
  4  5  1  0  0  0  0
  5  6  1  6  0  0  0
  5 49  1  0  0  0  0
  6  7  1  0  0  0  0
  7  8  2  0  0  0  0
  7 12  1  0  0  0  0
  8  9  1  0  0  0  0
  8 26  1  0  0  0  0
  9 10  1  0  0  0  0
 10 11  2  0  0  0  0
 10 22  1  0  0  0  0
 11 12  1  0  0  0  0
 11 13  1  0  0  0  0
 13 14  1  0  0  0  0
 13 20  1  0  0  0  0
 14 15  1  0  0  0  0
 15 16  2  0  0  0  0
 15 17  1  0  0  0  0
 17 18  1  0  0  0  0
 18 19  2  0  0  0  0
 18 20  1  0  0  0  0
 20 21  2  0  0  0  0
 21 22  1  0  0  0  0
 21 23  1  0  0  0  0
 23 24  1  0  0  0  0
 23 25  1  0  0  0  0
 24 25  1  0  0  0  0
 26 27  2  0  0  0  0
 26 32  1  0  0  0  0
 27 28  1  0  0  0  0
 28 29  1  0  0  0  0
 28 30  2  0  0  0  0
 30 31  1  0  0  0  0
 31 32  2  0  0  0  0
 31 36  1  0  0  0  0
 32 33  1  0  0  0  0
 33 34  2  0  0  0  0
 34 35  1  0  0  0  0
 34 42  1  0  0  0  0
 35 36  2  0  0  0  0
 35 38  1  0  0  0  0
 36 37  1  0  0  0  0
 39 38  1  6  0  0  0
 39 40  1  0  0  0  0
 39 44  1  0  0  0  0
 39 45  1  0  0  0  0
 40 41  2  0  0  0  0
 40 42  1  0  0  0  0
 42 43  2  0  0  0  0
 45 44  1  6  0  0  0
 45 46  1  0  0  0  0
 45 47  1  0  0  0  0
 46 47  1  0  0  0  0
 47 48  2  0  0  0  0
 49 50  1  0  0  0  0
 49 54  1  0  0  0  0
 50 51  1  0  0  0  0
 50 53  1  0  0  0  0
 51 52  2  0  0  0  0
M  CHG  3  22   1  28   1  32   1
M  END
$$$$