
 OpenBabel05142109403D

 51 61  0  0  1  0  0  0  0  0999 V2000
    2.7103    1.4011   -2.8717 F   0  0  0  0  0  0  0  0  0  0  0  0
    3.9491    0.9525   -2.6286 C   0  0  0  0  0  0  0  0  0  0  0  0
    5.0017    1.8535   -2.5967 C   0  0  0  0  0  0  0  0  0  0  0  0
    6.2780    1.3766   -2.3253 C   0  0  0  0  0  0  0  0  0  0  0  0
    6.4783    0.0113   -2.0754 C   0  0  0  0  0  0  0  0  0  0  0  0
    5.4297   -0.9338   -2.1037 C   0  0  0  0  0  0  0  0  0  0  0  0
    4.1507   -0.4128   -2.3963 C   0  0  0  0  0  0  0  0  0  0  0  0
    5.6351   -2.3794   -1.7482 C   0  0  0  0  0  0  0  0  0  0  0  0
    4.6237   -3.0899   -1.0943 C   0  0  0  0  0  0  0  0  0  0  0  0
    4.7665   -4.4334   -0.6694 C   0  0  0  0  0  0  0  0  0  0  0  0
    3.5327   -5.0406   -0.0481 C   0  0  0  0  0  0  0  0  0  0  0  0
    6.0259   -5.1072   -0.7700 C   0  0  0  0  0  0  0  0  0  0  0  0
    7.0951   -4.3559   -1.3497 C   0  0  0  0  0  0  0  0  0  0  0  0
    6.8232   -3.1089   -1.9609 C   0  0  0  0  0  0  0  0  0  0  0  0
    7.6867   -2.7792   -3.1182 C   0  0  0  0  0  0  0  0  0  0  0  0
    7.1567   -2.3036   -4.1265 O   0  0  0  0  0  0  0  0  0  0  0  0
    9.1807   -3.1400   -3.0697 C   0  0  1  0  0  0  0  0  0  0  0  0
    9.5852   -4.0680   -1.9021 C   0  0  2  0  0  0  0  0  0  0  0  0
    8.4197   -4.8447   -1.3195 C   0  0  0  0  0  0  0  0  0  0  0  0
    8.6967   -6.0268   -0.6576 C   0  0  0  0  0  0  0  0  0  0  0  0
    7.6594   -6.8190   -0.2019 C   0  0  0  0  0  0  0  0  0  0  0  0
    6.3012   -6.4613   -0.3446 C   0  0  0  0  0  0  0  0  0  0  0  0
    5.1961   -7.5969   -0.0187 C   0  0  0  0  0  0  0  0  0  0  0  0
    5.8030   -9.2638   -0.4015 C   0  0  0  0  0  0  0  0  0  0  0  0
    4.9003   -8.9158   -1.1845 C   0  0  0  0  0  0  0  0  0  0  0  0
    4.1472   -7.9478   -1.4435 C   0  0  0  0  0  0  0  0  0  0  0  0
    9.9435   -6.5113   -0.4278 O   0  0  0  0  0  0  0  0  0  0  0  0
   11.0245   -6.0330   -1.2336 C   0  0  2  0  0  0  0  0  0  0  0  0
   10.6661   -5.0653   -2.3681 C   0  0  1  0  0  0  0  0  0  0  0  0
   10.1342   -5.7541   -3.6026 C   0  0  0  0  0  0  0  0  0  0  0  0
    9.4975   -4.9535   -4.5420 C   0  0  0  0  0  0  0  0  0  0  0  0
    9.5033   -3.6022   -4.3933 O   0  0  0  0  0  0  0  0  0  0  0  0
    8.8898   -5.5054   -5.6574 C   0  0  0  0  0  0  0  0  0  0  0  0
    8.8874   -6.8914   -5.8176 C   0  0  0  0  0  0  0  0  0  0  0  0
    9.5345   -7.7247   -4.8872 C   0  0  0  0  0  0  0  0  0  0  0  0
   10.1922   -7.1430   -3.7855 C   0  0  0  0  0  0  0  0  0  0  0  0
   10.8652   -7.9753   -2.8852 C   0  0  0  0  0  0  0  0  0  0  0  0
   11.6065   -7.3464   -1.7744 C   0  0  0  0  0  0  0  0  0  0  0  0
   12.5987   -7.8891   -1.2901 O   0  0  0  0  0  0  0  0  0  0  0  0
   10.8287   -9.3670   -3.0031 C   0  0  0  0  0  0  0  0  0  0  0  0
   10.1507   -9.9572   -4.0678 C   0  0  0  0  0  0  0  0  0  0  0  0
    9.5186   -9.1261   -5.0072 C   0  0  0  0  0  0  0  0  0  0  0  0
    9.8812  -11.7291   -4.1638 S   0  3  0  0  0  0  0  0  0  0  0  0
   11.2928  -12.4677   -3.3121 C   0  0  0  0  0  0  0  0  0  0  0  0
   12.6676  -12.1083   -3.8529 C   0  0  0  0  0  0  0  0  0  0  0  0
   12.8382  -12.4338   -5.3304 C   0  0  0  0  0  0  0  0  0  0  0  0
   11.8199  -11.7006   -6.1930 C   0  0  0  0  0  0  0  0  0  0  0  0
   10.3953  -12.1067   -5.8576 C   0  0  0  0  0  0  0  0  0  0  0  0
   11.9894   -5.4059   -0.3883 O   0  0  0  0  0  0  0  0  0  0  0  0
    9.9001   -1.9138   -2.9076 O   0  0  0  0  0  0  0  0  0  0  0  0
    7.7249   -0.3701   -1.7592 F   0  0  0  0  0  0  0  0  0  0  0  0
  1  2  1  0  0  0  0
  2  3  2  0  0  0  0
  2  7  1  0  0  0  0
  3  4  1  0  0  0  0
  4  5  2  0  0  0  0
  5  6  1  0  0  0  0
  5 51  1  0  0  0  0
  6  7  2  0  0  0  0
  6  8  1  0  0  0  0
  8  9  2  0  0  0  0
  8 14  1  0  0  0  0
  9 10  1  0  0  0  0
 10 12  2  0  0  0  0
 10 11  1  0  0  0  0
 12 13  1  0  0  0  0
 12 22  1  0  0  0  0
 13 14  2  0  0  0  0
 13 19  1  0  0  0  0
 14 15  1  0  0  0  0
 15 17  1  0  0  0  0
 15 16  2  0  0  0  0
 17 18  1  0  0  0  0
 17 32  1  0  0  0  0
 17 50  1  1  0  0  0
 18 19  1  1  0  0  0
 18 29  1  0  0  0  0
 19 20  2  0  0  0  0
 20 21  1  0  0  0  0
 20 27  1  0  0  0  0
 21 22  2  0  0  0  0
 22 23  1  0  0  0  0
 23 24  1  0  0  0  0
 23 26  1  0  0  0  0
 24 25  2  0  0  0  0
 25 26  2  0  0  0  0
 27 28  1  0  0  0  0
 28 29  1  0  0  0  0
 28 38  1  0  0  0  0
 28 49  1  1  0  0  0
 29 30  1  6  0  0  0
 30 31  2  0  0  0  0
 30 36  1  0  0  0  0
 31 32  1  0  0  0  0
 31 33  1  0  0  0  0
 33 34  2  0  0  0  0
 34 35  1  0  0  0  0
 35 36  2  0  0  0  0
 35 42  1  0  0  0  0
 36 37  1  0  0  0  0
 37 38  1  0  0  0  0
 37 40  2  0  0  0  0
 38 39  2  0  0  0  0
 40 41  1  0  0  0  0
 41 42  2  0  0  0  0
 41 43  1  0  0  0  0
 43 44  1  0  0  0  0
 43 48  1  0  0  0  0
 44 45  1  0  0  0  0
 45 46  1  0  0  0  0
 46 47  1  0  0  0  0
 47 48  1  0  0  0  0
M  CHG  1  43   1
M  END
$$$$