
 OpenBabel05092106533D

 51 61  0  0  1  0  0  0  0  0999 V2000
    2.0072    0.7828   -2.1966 F   0  0  0  0  0  0  0  0  0  0  0  0
    3.3007    0.4606   -2.0614 C   0  0  0  0  0  0  0  0  0  0  0  0
    4.2628    1.4477   -2.1717 C   0  0  0  0  0  0  0  0  0  0  0  0
    5.5908    1.1009   -1.9655 C   0  0  0  0  0  0  0  0  0  0  0  0
    5.9274   -0.2145   -1.6102 C   0  0  0  0  0  0  0  0  0  0  0  0
    4.9805   -1.2632   -1.5487 C   0  0  0  0  0  0  0  0  0  0  0  0
    3.6506   -0.8695   -1.8064 C   0  0  0  0  0  0  0  0  0  0  0  0
    5.3586   -2.6921   -1.2092 C   0  0  0  0  0  0  0  0  0  0  0  0
    4.5001   -3.5348   -0.4467 C   0  0  0  0  0  0  0  0  0  0  0  0
    3.1578   -3.1435    0.1286 C   0  0  0  0  0  0  0  0  0  0  0  0
    4.8634   -4.8717   -0.1824 C   0  0  0  0  0  0  0  0  0  0  0  0
    6.1350   -5.3796   -0.4432 C   0  0  0  0  0  0  0  0  0  0  0  0
    7.0709   -4.5199   -1.0586 C   0  0  0  0  0  0  0  0  0  0  0  0
    6.6224   -3.2736   -1.5760 C   0  0  0  0  0  0  0  0  0  0  0  0
    7.4583   -2.7245   -2.6897 C   0  0  0  0  0  0  0  0  0  0  0  0
    6.9288   -2.0186   -3.5545 O   0  0  0  0  0  0  0  0  0  0  0  0
    8.9465   -3.1303   -2.8231 C   0  0  1  0  0  0  0  0  0  0  0  0
    9.4893   -4.0850   -1.7415 C   0  0  2  0  0  0  0  0  0  0  0  0
    8.4123   -4.9421   -1.1232 C   0  0  0  0  0  0  0  0  0  0  0  0
    8.7884   -6.1440   -0.5327 C   0  0  0  0  0  0  0  0  0  0  0  0
    7.8333   -7.0193   -0.0424 C   0  0  0  0  0  0  0  0  0  0  0  0
    6.4679   -6.7115   -0.0695 C   0  0  0  0  0  0  0  0  0  0  0  0
    5.3762   -7.8251    0.3211 C   0  0  0  0  0  0  0  0  0  0  0  0
    5.8803   -9.4806   -0.1699 C   0  0  0  0  0  0  0  0  0  0  0  0
    4.9367   -9.0699   -0.8679 C   0  0  0  0  0  0  0  0  0  0  0  0
    4.2019   -8.0621   -1.0290 C   0  0  0  0  0  0  0  0  0  0  0  0
   10.0724   -6.5620   -0.3980 O   0  0  0  0  0  0  0  0  0  0  0  0
   11.0626   -6.0098   -1.2698 C   0  0  2  0  0  0  0  0  0  0  0  0
   10.5678   -5.0178   -2.3345 C   0  0  1  0  0  0  0  0  0  0  0  0
    9.9523   -5.6948   -3.5371 C   0  0  0  0  0  0  0  0  0  0  0  0
    9.1803   -4.9050   -4.3820 C   0  0  0  0  0  0  0  0  0  0  0  0
    9.0847   -3.5645   -4.1885 O   0  0  0  0  0  0  0  0  0  0  0  0
    8.5111   -5.4572   -5.4617 C   0  0  0  0  0  0  0  0  0  0  0  0
    8.5512   -6.8350   -5.6565 C   0  0  0  0  0  0  0  0  0  0  0  0
    9.3080   -7.6562   -4.8064 C   0  0  0  0  0  0  0  0  0  0  0  0
   10.0586   -7.0772   -3.7658 C   0  0  0  0  0  0  0  0  0  0  0  0
   10.8571   -7.9118   -2.9722 C   0  0  0  0  0  0  0  0  0  0  0  0
   11.6546   -7.2849   -1.8963 C   0  0  0  0  0  0  0  0  0  0  0  0
   12.6913   -7.8083   -1.4904 O   0  0  0  0  0  0  0  0  0  0  0  0
   10.8746   -9.3017   -3.1557 C   0  0  0  0  0  0  0  0  0  0  0  0
   10.0774   -9.8868   -4.1448 C   0  0  0  0  0  0  0  0  0  0  0  0
    9.3005   -9.0512   -4.9546 C   0  0  0  0  0  0  0  0  0  0  0  0
    9.8945  -11.6725   -4.1832 S   0  3  0  0  0  0  0  0  0  0  0  0
   11.5895  -12.2500   -4.4309 C   0  0  0  0  0  0  0  0  0  0  0  0
   12.2638  -11.7638   -5.7021 C   0  0  0  0  0  0  0  0  0  0  0  0
   11.5169  -12.1904   -6.9596 C   0  0  0  0  0  0  0  0  0  0  0  0
   10.1179  -11.5959   -7.0013 C   0  0  0  0  0  0  0  0  0  0  0  0
    9.2565  -12.0487   -5.8325 C   0  0  0  0  0  0  0  0  0  0  0  0
   12.0547   -5.3649   -0.4721 O   0  0  0  0  0  0  0  0  0  0  0  0
    9.7064   -1.9168   -2.7325 O   0  0  0  0  0  0  0  0  0  0  0  0
    7.2175   -0.4450   -1.3173 F   0  0  0  0  0  0  0  0  0  0  0  0
  1  2  1  0  0  0  0
  2  3  2  0  0  0  0
  2  7  1  0  0  0  0
  3  4  1  0  0  0  0
  4  5  2  0  0  0  0
  5  6  1  0  0  0  0
  5 51  1  0  0  0  0
  6  7  2  0  0  0  0
  6  8  1  0  0  0  0
  8  9  2  0  0  0  0
  8 14  1  0  0  0  0
  9 11  1  0  0  0  0
  9 10  1  0  0  0  0
 11 12  2  0  0  0  0
 12 13  1  0  0  0  0
 12 22  1  0  0  0  0
 13 14  2  0  0  0  0
 13 19  1  0  0  0  0
 14 15  1  0  0  0  0
 15 17  1  0  0  0  0
 15 16  2  0  0  0  0
 17 18  1  0  0  0  0
 17 32  1  0  0  0  0
 17 50  1  1  0  0  0
 18 19  1  1  0  0  0
 18 29  1  0  0  0  0
 19 20  2  0  0  0  0
 20 21  1  0  0  0  0
 20 27  1  0  0  0  0
 21 22  2  0  0  0  0
 22 23  1  0  0  0  0
 23 24  1  0  0  0  0
 23 26  1  0  0  0  0
 24 25  2  0  0  0  0
 25 26  2  0  0  0  0
 27 28  1  0  0  0  0
 28 29  1  0  0  0  0
 28 38  1  0  0  0  0
 28 49  1  1  0  0  0
 29 30  1  6  0  0  0
 30 31  2  0  0  0  0
 30 36  1  0  0  0  0
 31 32  1  0  0  0  0
 31 33  1  0  0  0  0
 33 34  2  0  0  0  0
 34 35  1  0  0  0  0
 35 36  2  0  0  0  0
 35 42  1  0  0  0  0
 36 37  1  0  0  0  0
 37 38  1  0  0  0  0
 37 40  2  0  0  0  0
 38 39  2  0  0  0  0
 40 41  1  0  0  0  0
 41 42  2  0  0  0  0
 41 43  1  0  0  0  0
 43 44  1  0  0  0  0
 43 48  1  0  0  0  0
 44 45  1  0  0  0  0
 45 46  1  0  0  0  0
 46 47  1  0  0  0  0
 47 48  1  0  0  0  0
M  CHG  1  43   1
M  END
$$$$