
 OpenBabel11252023463D

 54 62  0  0  1  0  0  0  0  0999 V2000
    2.0462   -2.4818    5.8765 O   0  0  0  0  0  0  0  0  0  0  0  0
    2.5320   -2.6110    4.5997 C   0  0  0  0  0  0  0  0  0  0  0  0
    2.4375   -1.6312    3.6919 C   0  0  0  0  0  0  0  0  0  0  0  0
    1.8145   -0.4357    4.0038 O   0  0  0  0  0  0  0  0  0  0  0  0
    2.5111    0.6827    3.4647 C   0  0  2  0  0  0  0  0  0  0  0  0
    2.0095    1.9448    3.9452 O   0  0  0  0  0  0  0  0  0  0  0  0
    2.1498    2.2222    5.2988 C   0  0  0  0  0  0  0  0  0  0  0  0
    2.1534    3.4929    5.7719 C   0  0  0  0  0  0  0  0  0  0  0  0
    2.2358    3.7769    7.1382 O   0  0  0  0  0  0  0  0  0  0  0  0
    2.5643    2.7709    8.0223 C   0  0  0  0  0  0  0  0  0  0  0  0
    2.5811    1.4560    7.6392 C   0  0  0  0  0  0  0  0  0  0  0  0
    2.2392    1.0606    6.2544 C   0  0  0  0  0  0  0  0  0  0  0  0
    2.9310    0.5162    8.5969 C   0  0  0  0  0  0  0  0  0  0  0  0
    2.8836   -0.8329    8.2350 O   0  0  0  0  0  0  0  0  0  0  0  0
    3.4521   -1.8350    9.0199 C   0  0  0  0  0  0  0  0  0  0  0  0
    3.5002   -2.9900    8.6154 O   0  0  0  0  0  0  0  0  0  0  0  0
    4.0234   -1.4345   10.1784 O   0  0  0  0  0  0  0  0  0  0  0  0
    3.6060   -0.2307   10.8243 C   0  0  3  0  0  0  0  0  0  0  0  0
    3.2821    0.8704    9.8742 C   0  0  0  0  0  0  0  0  0  0  0  0
    3.2292    2.2267   10.2093 C   0  0  0  0  0  0  0  0  0  0  0  0
    2.8697    3.1659    9.2781 N   0  0  0  0  0  0  0  0  0  0  0  0
    3.5369    2.6926   11.6139 C   0  0  0  0  0  0  0  0  0  0  0  0
    4.9169    2.9518   11.9242 O   0  0  0  0  0  0  0  0  0  0  0  0
    3.9819    4.0460   11.8004 O   0  0  0  0  0  0  0  0  0  0  0  0
    2.4470   -0.4864   11.5959 O   0  0  0  0  0  0  0  0  0  0  0  0
    2.0260    4.7159    4.9141 C   0  0  0  0  0  0  0  0  0  0  0  0
    1.1986    4.6596    3.7910 C   0  0  0  0  0  0  0  0  0  0  0  0
    1.0504    5.7114    2.9838 N   0  3  0  0  0  0  0  0  0  0  0  0
    0.2895    5.5859    1.8796 F   0  0  0  0  0  0  0  0  0  0  0  0
    1.6112    6.8767    3.2268 N   0  0  0  0  0  0  0  0  0  0  0  0
    2.3764    7.0290    4.3089 C   0  0  0  0  0  0  0  0  0  0  0  0
    2.6533    5.9665    5.1942 C   0  0  0  0  0  0  0  0  0  0  0  0
    3.5328    6.2445    6.2818 C   0  0  0  0  0  0  0  0  0  0  0  0
    4.0323    7.5351    6.5220 C   0  0  0  0  0  0  0  0  0  0  0  0
    4.9275    7.7998    7.6555 C   0  0  0  0  0  0  0  0  0  0  0  0
    5.4614    6.8822    8.2557 O   0  0  0  0  0  0  0  0  0  0  0  0
    5.1786    9.2504    8.0163 C   0  0  0  0  0  0  0  0  0  0  0  0
    5.9317    9.5510    8.9308 O   0  0  0  0  0  0  0  0  0  0  0  0
    4.3779   10.2501    7.2111 C   0  0  1  0  0  0  0  0  0  0  0  0
    4.1198    9.8613    5.8533 O   0  0  0  0  0  0  0  0  0  0  0  0
    3.6981    8.5742    5.6784 C   0  0  0  0  0  0  0  0  0  0  0  0
    2.9070    8.2945    4.5662 C   0  0  0  0  0  0  0  0  0  0  0  0
    2.6168    9.2963    3.7188 F   0  0  0  0  0  0  0  0  0  0  0  0
    3.0956   10.5963    7.8992 C   0  0  1  0  0  0  0  0  0  0  0  0
    2.1798    9.5004    8.1563 O   0  0  0  0  0  0  0  0  0  0  0  0
    3.1885   11.5878    8.9157 O   0  0  0  0  0  0  0  0  0  0  0  0
    2.4761   11.9209    7.8212 C   0  0  0  0  0  0  0  0  0  0  0  0
    1.3031   12.2075    7.7142 O   0  0  0  0  0  0  0  0  0  0  0  0
    2.2904    0.5854    1.9641 C   0  0  0  0  0  0  0  0  0  0  0  0
    1.7785    1.5017    1.3149 O   0  0  0  0  0  0  0  0  0  0  0  0
    2.8505   -0.6786    1.3437 C   0  0  3  0  0  0  0  0  0  0  0  0
    3.0144   -1.8272    2.3229 C   0  0  0  0  0  0  0  0  0  0  0  0
    3.6191   -2.8564    2.0309 O   0  0  0  0  0  0  0  0  0  0  0  0
    2.1318   -1.0591    0.2481 F   0  0  0  0  0  0  0  0  0  0  0  0
  1  2  1  0  0  0  0
  2  3  2  0  0  0  0
  3  4  1  0  0  0  0
  3 52  1  0  0  0  0
  4  5  1  0  0  0  0
  5  6  1  1  0  0  0
  5 49  1  0  0  0  0
  6  7  1  0  0  0  0
  7  8  2  0  0  0  0
  7 12  1  0  0  0  0
  8  9  1  0  0  0  0
  8 26  1  0  0  0  0
  9 10  1  0  0  0  0
 10 11  2  0  0  0  0
 10 21  1  0  0  0  0
 11 12  1  0  0  0  0
 11 13  1  0  0  0  0
 13 14  1  0  0  0  0
 13 19  2  0  0  0  0
 14 15  1  0  0  0  0
 15 16  2  0  0  0  0
 15 17  1  0  0  0  0
 17 18  1  0  0  0  0
 18 19  1  0  0  0  0
 18 25  1  0  0  0  0
 19 20  1  0  0  0  0
 20 21  2  0  0  0  0
 20 22  1  0  0  0  0
 22 23  1  0  0  0  0
 22 24  1  0  0  0  0
 23 24  1  0  0  0  0
 26 27  2  0  0  0  0
 26 32  1  0  0  0  0
 27 28  1  0  0  0  0
 28 29  1  0  0  0  0
 28 30  2  0  0  0  0
 30 31  1  0  0  0  0
 31 32  2  0  0  0  0
 31 42  1  0  0  0  0
 32 33  1  0  0  0  0
 33 34  2  0  0  0  0
 34 35  1  0  0  0  0
 34 41  1  0  0  0  0
 35 36  2  0  0  0  0
 35 37  1  0  0  0  0
 37 38  2  0  0  0  0
 39 37  1  1  0  0  0
 39 40  1  0  0  0  0
 39 44  1  0  0  0  0
 40 41  1  0  0  0  0
 41 42  2  0  0  0  0
 42 43  1  0  0  0  0
 44 45  1  1  0  0  0
 44 46  1  0  0  0  0
 44 47  1  0  0  0  0
 46 47  1  0  0  0  0
 47 48  2  0  0  0  0
 49 50  2  0  0  0  0
 49 51  1  0  0  0  0
 51 52  1  0  0  0  0
 51 54  1  0  0  0  0
 52 53  2  0  0  0  0
M  CHG  1  28   1
M  END
$$$$