
 OpenBabel11212020293D

 53 61  0  0  1  0  0  0  0  0999 V2000
   -1.3587    0.3246    6.3107 O   0  0  0  0  0  0  0  0  0  0  0  0
   -0.2367    0.5306    5.5492 C   0  0  0  0  0  0  0  0  0  0  0  0
    0.4757   -0.4236    4.9324 C   0  0  0  0  0  0  0  0  0  0  0  0
    0.1829   -1.7520    5.1345 O   0  0  0  0  0  0  0  0  0  0  0  0
    1.0938   -2.6948    4.5888 C   0  0  2  0  0  0  0  0  0  0  0  0
    1.7640   -3.4996    5.5369 O   0  0  0  0  0  0  0  0  0  0  0  0
    1.5854   -4.8747    5.6548 C   0  0  0  0  0  0  0  0  0  0  0  0
    0.7254   -5.7725    5.0577 C   0  0  0  0  0  0  0  0  0  0  0  0
    0.8058   -7.1545    5.4029 O   0  0  0  0  0  0  0  0  0  0  0  0
    1.7387   -7.6542    6.3195 C   0  0  0  0  0  0  0  0  0  0  0  0
    2.5970   -6.8286    6.9272 C   0  0  0  0  0  0  0  0  0  0  0  0
    2.6135   -5.3683    6.6537 C   0  0  0  0  0  0  0  0  0  0  0  0
    3.6343   -7.2988    7.8970 C   0  0  3  0  0  0  0  0  0  0  0  0
    3.3661   -6.7036    9.1513 O   0  0  0  0  0  0  0  0  0  0  0  0
    4.3036   -6.9207   10.1113 C   0  0  0  0  0  0  0  0  0  0  0  0
    4.4472   -6.1640   11.0566 O   0  0  0  0  0  0  0  0  0  0  0  0
    5.0629   -8.0300    9.9261 O   0  0  0  0  0  0  0  0  0  0  0  0
    4.6353   -9.1432    9.1141 C   0  0  0  0  0  0  0  0  0  0  0  0
    3.5807   -8.7593    8.1174 C   0  0  0  0  0  0  0  0  0  0  0  0
    2.6799   -9.5598    7.4944 C   0  0  0  0  0  0  0  0  0  0  0  0
    1.7610   -9.0161    6.5856 O   0  3  0  0  0  0  0  0  0  0  0  0
    2.6352  -11.0337    7.7033 C   0  0  0  0  0  0  0  0  0  0  0  0
    3.2900  -11.9154    6.7790 O   0  0  0  0  0  0  0  0  0  0  0  0
    3.7795  -11.7958    8.1257 O   0  0  0  0  0  0  0  0  0  0  0  0
   -0.3717   -5.5080    4.0014 C   0  0  0  0  0  0  0  0  0  0  0  0
   -1.1191   -4.4039    4.1633 N   0  0  0  0  0  0  0  0  0  0  0  0
   -1.6973   -3.8658    3.0664 C   0  0  0  0  0  0  0  0  0  0  0  0
   -2.0603   -2.5774    3.1568 F   0  0  0  0  0  0  0  0  0  0  0  0
   -1.7409   -4.4242    1.8647 N   0  0  0  0  0  0  0  0  0  0  0  0
   -1.2787   -5.6722    1.7824 C   0  0  0  0  0  0  0  0  0  0  0  0
   -0.5948   -6.2817    2.8597 C   0  0  0  0  0  0  0  0  0  0  0  0
   -0.2920   -7.6398    2.7744 C   0  0  0  0  0  0  0  0  0  0  0  0
   -0.5514   -8.3537    1.6144 C   0  0  0  0  0  0  0  0  0  0  0  0
   -0.3884   -9.7992    1.6352 C   0  0  0  0  0  0  0  0  0  0  0  0
   -0.2393  -10.3851    2.7005 O   0  0  0  0  0  0  0  0  0  0  0  0
   -0.4455  -10.5034    0.3022 C   0  0  0  0  0  0  0  0  0  0  0  0
   -0.4098  -11.7232    0.2653 O   0  0  0  0  0  0  0  0  0  0  0  0
   -0.4949   -9.5861   -0.9040 C   0  0  1  0  0  0  0  0  0  0  0  0
   -1.2472   -8.3789   -0.6973 O   0  0  0  0  0  0  0  0  0  0  0  0
   -1.0691   -7.7376    0.4963 C   0  0  0  0  0  0  0  0  0  0  0  0
   -1.5419   -6.4228    0.6175 C   0  0  0  0  0  0  0  0  0  0  0  0
   -2.1686   -5.8163   -0.4984 N   0  0  0  0  0  0  0  0  0  0  0  0
    0.8676   -9.3077   -1.4778 C   0  0  1  0  0  0  0  0  0  0  0  0
    1.8280   -8.6420   -0.6126 O   0  0  0  0  0  0  0  0  0  0  0  0
    1.4511  -10.3597   -2.2452 O   0  0  0  0  0  0  0  0  0  0  0  0
    1.0787   -9.2418   -2.9324 C   0  0  0  0  0  0  0  0  0  0  0  0
    0.3545   -9.1181   -3.8538 O   0  0  0  0  0  0  0  0  0  0  0  0
    1.7855   -2.4191    3.2803 C   0  0  0  0  0  0  0  0  0  0  0  0
    1.9461   -3.2605    2.4045 O   0  0  0  0  0  0  0  0  0  0  0  0
    2.1728   -0.9946    3.1240 C   0  0  0  0  0  0  0  0  0  0  0  0
    2.9708   -0.6962    2.2507 O   0  0  0  0  0  0  0  0  0  0  0  0
    1.6149    0.0310    4.0835 C   0  0  0  0  0  0  0  0  0  0  0  0
    2.1199    1.1377    4.1678 O   0  0  0  0  0  0  0  0  0  0  0  0
  1  2  1  0  0  0  0
  2  3  2  0  0  0  0
  3  4  1  0  0  0  0
  3 52  1  0  0  0  0
  4  5  1  0  0  0  0
  5  6  1  1  0  0  0
  5 48  1  0  0  0  0
  6  7  1  0  0  0  0
  7  8  2  0  0  0  0
  7 12  1  0  0  0  0
  8  9  1  0  0  0  0
  8 25  1  0  0  0  0
  9 10  1  0  0  0  0
 10 11  2  0  0  0  0
 10 21  1  0  0  0  0
 11 12  1  0  0  0  0
 11 13  1  0  0  0  0
 13 14  1  0  0  0  0
 13 19  1  0  0  0  0
 14 15  1  0  0  0  0
 15 16  2  0  0  0  0
 15 17  1  0  0  0  0
 17 18  1  0  0  0  0
 18 19  1  0  0  0  0
 19 20  2  0  0  0  0
 20 21  1  0  0  0  0
 20 22  1  0  0  0  0
 22 23  1  0  0  0  0
 22 24  1  0  0  0  0
 23 24  1  0  0  0  0
 25 26  2  0  0  0  0
 25 31  1  0  0  0  0
 26 27  1  0  0  0  0
 27 28  1  0  0  0  0
 27 29  2  0  0  0  0
 29 30  1  0  0  0  0
 30 31  2  0  0  0  0
 30 41  1  0  0  0  0
 31 32  1  0  0  0  0
 32 33  2  0  0  0  0
 33 34  1  0  0  0  0
 33 40  1  0  0  0  0
 34 35  2  0  0  0  0
 34 36  1  0  0  0  0
 36 37  2  0  0  0  0
 38 36  1  1  0  0  0
 38 39  1  0  0  0  0
 38 43  1  0  0  0  0
 39 40  1  0  0  0  0
 40 41  2  0  0  0  0
 41 42  1  0  0  0  0
 43 44  1  1  0  0  0
 43 45  1  0  0  0  0
 43 46  1  0  0  0  0
 45 46  1  0  0  0  0
 46 47  2  0  0  0  0
 48 49  2  0  0  0  0
 48 50  1  0  0  0  0
 50 51  2  0  0  0  0
 50 52  1  0  0  0  0
 52 53  2  0  0  0  0
M  CHG  1  21   1
M  END
$$$$