
 OpenBabel11252015093D

 54 63  0  0  1  0  0  0  0  0999 V2000
   16.9740    1.0716    0.2530 O   0  0  0  0  0  0  0  0  0  0  0  0
   16.8198   -0.2348    0.6529 C   0  0  0  0  0  0  0  0  0  0  0  0
   16.0543   -1.1157   -0.0036 C   0  0  0  0  0  0  0  0  0  0  0  0
   15.3365   -0.7280   -1.1169 O   0  0  0  0  0  0  0  0  0  0  0  0
   15.3544   -1.7232   -2.1377 C   0  0  2  0  0  0  0  0  0  0  0  0
   14.7093   -1.2260   -3.3343 O   0  0  0  0  0  0  0  0  0  0  0  0
   15.2477   -0.0826   -3.9110 C   0  0  0  0  0  0  0  0  0  0  0  0
   14.4841    0.7625   -4.6436 C   0  0  0  0  0  0  0  0  0  0  0  0
   15.0417    1.8928   -5.2673 O   0  0  0  0  0  0  0  0  0  0  0  0
   16.3753    2.2475   -5.0345 C   0  0  0  0  0  0  0  0  0  0  0  0
   17.1927    1.4446   -4.3323 C   0  0  0  0  0  0  0  0  0  0  0  0
   16.7283    0.1535   -3.7451 C   0  0  0  0  0  0  0  0  0  0  0  0
   18.6155    1.8191   -4.0298 C   0  0  3  0  0  0  0  0  0  0  0  0
   19.4628    0.7533   -4.4199 O   0  0  0  0  0  0  0  0  0  0  0  0
   20.7536    0.9196   -4.0115 C   0  0  0  0  0  0  0  0  0  0  0  0
   21.4881   -0.0229   -3.7770 O   0  0  0  0  0  0  0  0  0  0  0  0
   21.1137    2.2196   -3.8453 O   0  0  0  0  0  0  0  0  0  0  0  0
   20.5358    3.1518   -4.7488 C   0  0  3  0  0  0  0  0  0  0  0  0
   19.0486    3.0031   -4.8076 C   0  0  0  0  0  0  0  0  0  0  0  0
   18.1778    3.7760   -5.4975 C   0  0  0  0  0  0  0  0  0  0  0  0
   16.8264    3.4504   -5.5396 O   0  3  0  0  0  0  0  0  0  0  0  0
   18.5773    4.9599   -6.2946 C   0  0  0  0  0  0  0  0  0  0  0  0
   18.9016    4.8289   -7.6846 O   0  0  0  0  0  0  0  0  0  0  0  0
   17.6858    5.4932   -7.2911 O   0  0  0  0  0  0  0  0  0  0  0  0
   20.7844    4.4564   -4.2697 O   0  0  0  0  0  0  0  0  0  0  0  0
   13.0068    0.5686   -4.8697 C   0  0  0  0  0  0  0  0  0  0  0  0
   12.5018   -0.7285   -5.0023 C   0  0  0  0  0  0  0  0  0  0  0  0
   11.1996   -0.9568   -5.1957 N   0  3  0  0  0  0  0  0  0  0  0  0
   10.7640   -2.2288   -5.2803 F   0  0  0  0  0  0  0  0  0  0  0  0
   10.3206    0.0150   -5.3295 N   0  0  0  0  0  0  0  0  0  0  0  0
   10.7176    1.2845   -5.2370 C   0  0  0  0  0  0  0  0  0  0  0  0
   12.0641    1.6276   -4.9866 C   0  0  0  0  0  0  0  0  0  0  0  0
   12.3641    3.0058   -4.8640 C   0  0  0  0  0  0  0  0  0  0  0  0
   11.3890    3.9974   -5.0486 C   0  0  0  0  0  0  0  0  0  0  0  0
   10.0816    3.6594   -5.3085 C   0  0  0  0  0  0  0  0  0  0  0  0
    9.7670    2.3024   -5.3920 C   0  0  0  0  0  0  0  0  0  0  0  0
    8.4951    1.9539   -5.6437 F   0  0  0  0  0  0  0  0  0  0  0  0
    9.0780    4.5663   -5.4924 O   0  0  0  0  0  0  0  0  0  0  0  0
    9.3814    5.9840   -5.3850 C   0  0  1  0  0  0  0  0  0  0  0  0
   10.6547    6.3929   -4.7651 C   0  0  0  0  0  0  0  0  0  0  0  0
   10.8122    7.3990   -4.0959 O   0  0  0  0  0  0  0  0  0  0  0  0
   11.7696    5.4042   -4.9801 C   0  0  0  0  0  0  0  0  0  0  0  0
   12.9459    5.7229   -5.0772 O   0  0  0  0  0  0  0  0  0  0  0  0
    8.9543    6.7895   -6.4540 O   0  0  0  0  0  0  0  0  0  0  0  0
    8.2302    6.9304   -5.1885 C   0  0  1  0  0  0  0  0  0  0  0  0
    7.0202    6.0962   -4.9953 O   0  0  0  0  0  0  0  0  0  0  0  0
    6.8812    7.2898   -5.5205 C   0  0  0  0  0  0  0  0  0  0  0  0
    6.1747    8.2321   -5.2315 O   0  0  0  0  0  0  0  0  0  0  0  0
   14.6207   -2.9909   -1.6487 C   0  0  3  0  0  0  0  0  0  0  0  0
   15.3918   -3.5882   -0.4446 C   0  0  3  0  0  0  0  0  0  0  0  0
   16.0011   -2.5307    0.4887 C   0  0  0  0  0  0  0  0  0  0  0  0
   16.4984   -2.8473    1.5702 O   0  0  0  0  0  0  0  0  0  0  0  0
   14.5322   -4.5048    0.3391 N   0  0  0  0  0  0  0  0  0  0  0  0
   13.1701   -2.7715   -1.3624 N   0  0  0  0  0  0  0  0  0  0  0  0
  1  2  1  0  0  0  0
  2  3  2  0  0  0  0
  3  4  1  0  0  0  0
  3 51  1  0  0  0  0
  4  5  1  0  0  0  0
  5  6  1  6  0  0  0
  5 49  1  0  0  0  0
  6  7  1  0  0  0  0
  7  8  2  0  0  0  0
  7 12  1  0  0  0  0
  8  9  1  0  0  0  0
  8 26  1  0  0  0  0
  9 10  1  0  0  0  0
 10 11  2  0  0  0  0
 10 21  1  0  0  0  0
 11 12  1  0  0  0  0
 11 13  1  0  0  0  0
 13 14  1  0  0  0  0
 13 19  1  0  0  0  0
 14 15  1  0  0  0  0
 15 16  2  0  0  0  0
 15 17  1  0  0  0  0
 17 18  1  0  0  0  0
 18 19  1  0  0  0  0
 18 25  1  0  0  0  0
 19 20  2  0  0  0  0
 20 21  1  0  0  0  0
 20 22  1  0  0  0  0
 22 23  1  0  0  0  0
 22 24  1  0  0  0  0
 23 24  1  0  0  0  0
 26 27  2  0  0  0  0
 26 32  1  0  0  0  0
 27 28  1  0  0  0  0
 28 29  1  0  0  0  0
 28 30  2  0  0  0  0
 30 31  1  0  0  0  0
 31 32  2  0  0  0  0
 31 36  1  0  0  0  0
 32 33  1  0  0  0  0
 33 34  2  0  0  0  0
 34 35  1  0  0  0  0
 34 42  1  0  0  0  0
 35 36  2  0  0  0  0
 35 38  1  0  0  0  0
 36 37  1  0  0  0  0
 39 38  1  6  0  0  0
 39 40  1  0  0  0  0
 39 44  1  0  0  0  0
 39 45  1  0  0  0  0
 40 41  2  0  0  0  0
 40 42  1  0  0  0  0
 42 43  2  0  0  0  0
 45 44  1  6  0  0  0
 45 46  1  0  0  0  0
 45 47  1  0  0  0  0
 46 47  1  0  0  0  0
 47 48  2  0  0  0  0
 49 50  1  0  0  0  0
 49 54  1  0  0  0  0
 50 51  1  0  0  0  0
 50 53  1  0  0  0  0
 51 52  2  0  0  0  0
M  CHG  2  21   1  28   1
M  END
$$$$