
 OpenBabel11142001523D

 52 60  0  0  1  0  0  0  0  0999 V2000
    2.0381    7.8274   -5.0683 O   0  0  0  0  0  0  0  0  0  0  0  0
    1.6738    6.5349   -5.3414 C   0  0  0  0  0  0  0  0  0  0  0  0
    2.0855    5.4935   -4.6096 C   0  0  0  0  0  0  0  0  0  0  0  0
    2.9479    5.6516   -3.5404 O   0  0  0  0  0  0  0  0  0  0  0  0
    2.5555    4.8757   -2.4053 C   0  0  2  0  0  0  0  0  0  0  0  0
    3.3367    5.2103   -1.2517 O   0  0  0  0  0  0  0  0  0  0  0  0
    3.2773    6.5348   -0.8244 C   0  0  0  0  0  0  0  0  0  0  0  0
    4.3329    7.1101   -0.2121 C   0  0  0  0  0  0  0  0  0  0  0  0
    4.3229    8.4162    0.2650 O   0  0  0  0  0  0  0  0  0  0  0  0
    3.2352    9.2251   -0.0083 C   0  0  0  0  0  0  0  0  0  0  0  0
    2.1242    8.7557   -0.6003 C   0  0  0  0  0  0  0  0  0  0  0  0
    1.9953    7.3198   -1.0023 C   0  0  0  0  0  0  0  0  0  0  0  0
    0.9931    9.6925   -0.9528 C   0  0  3  0  0  0  0  0  0  0  0  0
   -0.1805    9.2375   -0.2881 O   0  0  0  0  0  0  0  0  0  0  0  0
   -1.3020   10.0007   -0.3122 C   0  0  0  0  0  0  0  0  0  0  0  0
   -2.3890    9.5432    0.0148 O   0  0  0  0  0  0  0  0  0  0  0  0
   -1.1745   11.2870   -0.7187 O   0  0  0  0  0  0  0  0  0  0  0  0
    0.0717   11.9432   -0.9201 C   0  0  3  0  0  0  0  0  0  0  0  0
    1.2274   11.1050   -0.5506 C   0  0  0  0  0  0  0  0  0  0  0  0
    2.3619   11.4986    0.0690 C   0  0  0  0  0  0  0  0  0  0  0  0
    3.3389   10.5511    0.3264 N   0  0  0  0  0  0  0  0  0  0  0  0
    2.6670   12.8894    0.4688 C   0  0  0  0  0  0  0  0  0  0  0  0
    1.8579   13.6091    1.4129 O   0  0  0  0  0  0  0  0  0  0  0  0
    3.1948   13.2075    1.7672 O   0  0  0  0  0  0  0  0  0  0  0  0
    0.1965   12.2508   -2.3006 O   0  0  0  0  0  0  0  0  0  0  0  0
    5.6150    6.4274    0.0069 C   0  0  0  0  0  0  0  0  0  0  0  0
    6.5072    6.5807   -0.9949 N   0  0  0  0  0  0  0  0  0  0  0  0
    7.7004    6.0752   -0.8654 N   0  0  0  0  0  0  0  0  0  0  0  0
    8.0796    5.4518    0.2253 N   0  0  0  0  0  0  0  0  0  0  0  0
    7.2301    5.2907    1.2452 C   0  0  0  0  0  0  0  0  0  0  0  0
    5.9218    5.7580    1.1880 C   0  0  0  0  0  0  0  0  0  0  0  0
    5.0459    5.5444    2.2840 C   0  0  0  0  0  0  0  0  0  0  0  0
    5.5076    4.8975    3.4311 C   0  0  0  0  0  0  0  0  0  0  0  0
    6.8348    4.4999    3.5200 C   0  0  0  0  0  0  0  0  0  0  0  0
    7.6690    4.6674    2.4120 C   0  0  0  0  0  0  0  0  0  0  0  0
    7.4110    3.9470    4.6301 O   0  0  0  0  0  0  0  0  0  0  0  0
    6.6697    4.0441    5.8621 C   0  0  2  0  0  0  0  0  0  0  0  0
    5.1921    3.7974    5.6689 C   0  0  0  0  0  0  0  0  0  0  0  0
    4.5242    2.9948    6.3020 O   0  0  0  0  0  0  0  0  0  0  0  0
    4.5965    4.6136    4.5464 C   0  0  0  0  0  0  0  0  0  0  0  0
    3.4438    5.0065    4.5693 O   0  0  0  0  0  0  0  0  0  0  0  0
    7.0123    5.3189    6.5900 C   0  0  1  0  0  0  0  0  0  0  0  0
    8.3985    5.4890    6.9539 O   0  0  0  0  0  0  0  0  0  0  0  0
    6.3882    6.5154    6.1192 O   0  0  0  0  0  0  0  0  0  0  0  0
    6.0319    6.0876    7.3491 C   0  0  0  0  0  0  0  0  0  0  0  0
    4.9386    5.8170    7.7855 O   0  0  0  0  0  0  0  0  0  0  0  0
    2.6649    3.3837   -2.7149 C   0  0  0  0  0  0  0  0  0  0  0  0
    2.9535    2.5018   -1.9190 O   0  0  0  0  0  0  0  0  0  0  0  0
    2.2408    3.0486   -4.1299 C   0  0  0  0  0  0  0  0  0  0  0  0
    2.4134    1.9347   -4.5973 O   0  0  0  0  0  0  0  0  0  0  0  0
    1.6011    4.1353   -4.9673 C   0  0  0  0  0  0  0  0  0  0  0  0
    0.7357    3.9015   -5.7924 O   0  0  0  0  0  0  0  0  0  0  0  0
  1  2  1  0  0  0  0
  2  3  2  0  0  0  0
  3  4  1  0  0  0  0
  3 51  1  0  0  0  0
  4  5  1  0  0  0  0
  5  6  1  1  0  0  0
  5 47  1  0  0  0  0
  6  7  1  0  0  0  0
  7  8  2  0  0  0  0
  7 12  1  0  0  0  0
  8  9  1  0  0  0  0
  8 26  1  0  0  0  0
  9 10  1  0  0  0  0
 10 11  2  0  0  0  0
 10 21  1  0  0  0  0
 11 12  1  0  0  0  0
 11 13  1  0  0  0  0
 13 14  1  0  0  0  0
 13 19  1  0  0  0  0
 14 15  1  0  0  0  0
 15 16  2  0  0  0  0
 15 17  1  0  0  0  0
 17 18  1  0  0  0  0
 18 19  1  0  0  0  0
 18 25  1  0  0  0  0
 19 20  2  0  0  0  0
 20 21  1  0  0  0  0
 20 22  1  0  0  0  0
 22 23  1  0  0  0  0
 22 24  1  0  0  0  0
 23 24  1  0  0  0  0
 26 27  2  0  0  0  0
 26 31  1  0  0  0  0
 27 28  1  0  0  0  0
 28 29  2  0  0  0  0
 29 30  1  0  0  0  0
 30 31  2  0  0  0  0
 30 35  1  0  0  0  0
 31 32  1  0  0  0  0
 32 33  2  0  0  0  0
 33 34  1  0  0  0  0
 33 40  1  0  0  0  0
 34 35  2  0  0  0  0
 34 36  1  0  0  0  0
 37 36  1  6  0  0  0
 37 38  1  0  0  0  0
 37 42  1  0  0  0  0
 38 39  2  0  0  0  0
 38 40  1  0  0  0  0
 40 41  2  0  0  0  0
 42 43  1  1  0  0  0
 42 44  1  0  0  0  0
 42 45  1  0  0  0  0
 44 45  1  0  0  0  0
 45 46  2  0  0  0  0
 47 48  2  0  0  0  0
 47 49  1  0  0  0  0
 49 50  2  0  0  0  0
 49 51  1  0  0  0  0
 51 52  2  0  0  0  0
M  END
$$$$