
 OpenBabel11232002483D

 54 62  0  0  1  0  0  0  0  0999 V2000
    2.9323   -3.9139   -3.1692 O   0  0  0  0  0  0  0  0  0  0  0  0
    2.8438   -2.6772   -2.5758 C   0  0  0  0  0  0  0  0  0  0  0  0
    2.2862   -2.4665   -1.3756 C   0  0  0  0  0  0  0  0  0  0  0  0
    1.5153   -3.7161   -0.4670 S   0  0  0  0  0  0  0  0  0  0  0  0
    2.4300   -3.5148    1.0896 C   0  0  2  0  0  0  0  0  0  0  0  0
    2.0255   -4.5046    2.0739 O   0  0  0  0  0  0  0  0  0  0  0  0
    2.2895   -5.8534    1.8710 C   0  0  0  0  0  0  0  0  0  0  0  0
    1.5724   -6.8222    2.4981 C   0  0  0  0  0  0  0  0  0  0  0  0
    1.8395   -8.1891    2.2692 O   0  0  0  0  0  0  0  0  0  0  0  0
    2.7809   -8.5880    1.3110 C   0  0  0  0  0  0  0  0  0  0  0  0
    3.5530   -7.6764    0.6992 C   0  0  0  0  0  0  0  0  0  0  0  0
    3.4225   -6.2116    0.9464 C   0  0  0  0  0  0  0  0  0  0  0  0
    4.6054   -8.0465   -0.2989 C   0  0  3  0  0  0  0  0  0  0  0  0
    5.8424   -7.6529    0.2626 O   0  0  0  0  0  0  0  0  0  0  0  0
    6.9542   -7.8876   -0.4802 C   0  0  0  0  0  0  0  0  0  0  0  0
    7.9963   -7.2925   -0.2649 O   0  0  0  0  0  0  0  0  0  0  0  0
    6.8144   -8.8030   -1.4676 O   0  0  0  0  0  0  0  0  0  0  0  0
    5.7882   -9.7926   -1.4684 C   0  0  3  0  0  0  0  0  0  0  0  0
    4.6912   -9.5028   -0.5049 C   0  0  0  0  0  0  0  0  0  0  0  0
    3.8768  -10.3829    0.1206 C   0  0  0  0  0  0  0  0  0  0  0  0
    2.9089   -9.9353    1.0192 O   0  3  0  0  0  0  0  0  0  0  0  0
    3.9691  -11.8491   -0.0727 C   0  0  0  0  0  0  0  0  0  0  0  0
    4.8142  -12.6439    0.7697 O   0  0  0  0  0  0  0  0  0  0  0  0
    3.3815  -12.7504    0.8797 O   0  0  0  0  0  0  0  0  0  0  0  0
    5.1588   -9.7769   -2.7352 O   0  0  0  0  0  0  0  0  0  0  0  0
    0.4387   -6.5421    3.4631 C   0  0  0  0  0  0  0  0  0  0  0  0
    0.4993   -5.4064    4.2796 C   0  0  0  0  0  0  0  0  0  0  0  0
   -0.5022   -5.0794    5.1037 N   0  3  0  0  0  0  0  0  0  0  0  0
   -0.3972   -3.9630    5.8512 F   0  0  0  0  0  0  0  0  0  0  0  0
   -1.5936   -5.8064    5.2204 N   0  0  0  0  0  0  0  0  0  0  0  0
   -1.7202   -6.9308    4.5163 C   0  0  0  0  0  0  0  0  0  0  0  0
   -0.7159   -7.3646    3.6209 C   0  0  0  0  0  0  0  0  0  0  0  0
   -0.9504   -8.5880    2.9489 C   0  0  0  0  0  0  0  0  0  0  0  0
   -2.1075   -9.3496    3.1609 C   0  0  0  0  0  0  0  0  0  0  0  0
   -2.2570  -10.6372    2.4824 C   0  0  0  0  0  0  0  0  0  0  0  0
   -1.3264  -11.1023    1.8398 O   0  0  0  0  0  0  0  0  0  0  0  0
   -3.5810  -11.3427    2.6674 C   0  0  0  0  0  0  0  0  0  0  0  0
   -3.6591  -12.5471    2.4831 O   0  0  0  0  0  0  0  0  0  0  0  0
   -4.7128  -10.4354    3.1002 C   0  0  1  0  0  0  0  0  0  0  0  0
   -4.3122   -9.5175    4.1450 O   0  0  0  0  0  0  0  0  0  0  0  0
   -3.1070   -8.8920    3.9918 C   0  0  0  0  0  0  0  0  0  0  0  0
   -2.8874   -7.6923    4.6700 C   0  0  0  0  0  0  0  0  0  0  0  0
   -3.8485   -7.2323    5.4874 F   0  0  0  0  0  0  0  0  0  0  0  0
   -5.3780   -9.7670    1.9264 C   0  0  1  0  0  0  0  0  0  0  0  0
   -5.9386  -10.6112    0.9210 O   0  0  0  0  0  0  0  0  0  0  0  0
   -6.1614   -8.5819    2.2418 O   0  0  0  0  0  0  0  0  0  0  0  0
   -5.0704   -8.3848    1.4821 C   0  0  0  0  0  0  0  0  0  0  0  0
   -4.0855   -7.6861    1.6125 O   0  0  0  0  0  0  0  0  0  0  0  0
    2.0979   -2.1515    1.6760 C   0  0  0  0  0  0  0  0  0  0  0  0
    1.9704   -1.9684    2.8845 O   0  0  0  0  0  0  0  0  0  0  0  0
    1.9184   -1.0021    0.6878 C   0  0  0  0  0  0  0  0  0  0  0  0
    1.3750    0.0199    1.0836 O   0  0  0  0  0  0  0  0  0  0  0  0
    2.3303   -1.1052   -0.7740 C   0  0  0  0  0  0  0  0  0  0  0  0
    2.7129   -0.1202   -1.3851 O   0  0  0  0  0  0  0  0  0  0  0  0
  1  2  1  0  0  0  0
  2  3  2  0  0  0  0
  3  4  1  0  0  0  0
  3 53  1  0  0  0  0
  4  5  1  0  0  0  0
  5  6  1  1  0  0  0
  5 49  1  0  0  0  0
  6  7  1  0  0  0  0
  7  8  2  0  0  0  0
  7 12  1  0  0  0  0
  8  9  1  0  0  0  0
  8 26  1  0  0  0  0
  9 10  1  0  0  0  0
 10 11  2  0  0  0  0
 10 21  1  0  0  0  0
 11 12  1  0  0  0  0
 11 13  1  0  0  0  0
 13 14  1  0  0  0  0
 13 19  1  0  0  0  0
 14 15  1  0  0  0  0
 15 16  2  0  0  0  0
 15 17  1  0  0  0  0
 17 18  1  0  0  0  0
 18 19  1  0  0  0  0
 18 25  1  0  0  0  0
 19 20  2  0  0  0  0
 20 21  1  0  0  0  0
 20 22  1  0  0  0  0
 22 23  1  0  0  0  0
 22 24  1  0  0  0  0
 23 24  1  0  0  0  0
 26 27  2  0  0  0  0
 26 32  1  0  0  0  0
 27 28  1  0  0  0  0
 28 29  1  0  0  0  0
 28 30  2  0  0  0  0
 30 31  1  0  0  0  0
 31 32  2  0  0  0  0
 31 42  1  0  0  0  0
 32 33  1  0  0  0  0
 33 34  2  0  0  0  0
 34 35  1  0  0  0  0
 34 41  1  0  0  0  0
 35 36  2  0  0  0  0
 35 37  1  0  0  0  0
 37 38  2  0  0  0  0
 39 37  1  6  0  0  0
 39 40  1  0  0  0  0
 39 44  1  0  0  0  0
 40 41  1  0  0  0  0
 41 42  2  0  0  0  0
 42 43  1  0  0  0  0
 44 45  1  6  0  0  0
 44 46  1  0  0  0  0
 44 47  1  0  0  0  0
 46 47  1  0  0  0  0
 47 48  2  0  0  0  0
 49 50  2  0  0  0  0
 49 51  1  0  0  0  0
 51 52  2  0  0  0  0
 51 53  1  0  0  0  0
 53 54  2  0  0  0  0
M  CHG  2  21   1  28   1
M  END
$$$$