
 OpenBabel10192022443D

 51 59  0  0  1  0  0  0  0  0999 V2000
    7.1669   -5.5433   -4.0092 O   0  0  0  0  0  0  0  0  0  0  0  0
    7.2176   -5.1859   -2.6878 C   0  0  0  0  0  0  0  0  0  0  0  0
    6.2049   -4.5820   -2.0528 C   0  0  0  0  0  0  0  0  0  0  0  0
    5.0480   -4.2275   -2.7199 O   0  0  0  0  0  0  0  0  0  0  0  0
    3.8483   -4.3317   -1.9553 C   0  0  2  0  0  0  0  0  0  0  0  0
    2.7092   -3.9201   -2.7272 O   0  0  0  0  0  0  0  0  0  0  0  0
    2.4255   -4.6252   -3.8908 C   0  0  0  0  0  0  0  0  0  0  0  0
    1.8100   -4.0258   -4.9352 C   0  0  0  0  0  0  0  0  0  0  0  0
    1.5113   -4.6761   -6.1282 O   0  0  0  0  0  0  0  0  0  0  0  0
    1.8556   -6.0111   -6.2736 C   0  0  0  0  0  0  0  0  0  0  0  0
    2.4149   -6.7061   -5.2707 C   0  0  0  0  0  0  0  0  0  0  0  0
    2.7579   -6.0969   -3.9545 C   0  0  0  0  0  0  0  0  0  0  0  0
    2.7396   -8.1397   -5.5071 C   0  0  0  0  0  0  0  0  0  0  0  0
    3.2603   -8.8632   -4.5707 N   0  0  0  0  0  0  0  0  0  0  0  0
    3.5545  -10.1879   -4.8286 C   0  0  0  0  0  0  0  0  0  0  0  0
    4.0431  -10.8540   -3.9249 O   0  0  0  0  0  0  0  0  0  0  0  0
    3.3328  -10.7958   -6.0495 N   0  0  0  0  0  0  0  0  0  0  0  0
    2.8115  -10.0994   -6.9994 C   0  0  0  0  0  0  0  0  0  0  0  0
    2.4513   -8.6907   -6.8495 C   0  0  0  0  0  0  0  0  0  0  0  0
    1.9146   -7.9030   -7.8024 C   0  0  0  0  0  0  0  0  0  0  0  0
    1.6163   -6.5839   -7.4966 N   0  0  0  0  0  0  0  0  0  0  0  0
    1.6135   -8.3380   -9.1859 C   0  0  0  0  0  0  0  0  0  0  0  0
    0.3640   -8.9568   -9.5252 O   0  0  0  0  0  0  0  0  0  0  0  0
    0.6714   -7.6378  -10.0175 O   0  0  0  0  0  0  0  0  0  0  0  0
    1.4135   -2.6034   -4.9173 C   0  0  0  0  0  0  0  0  0  0  0  0
    0.1646   -2.3967   -4.4298 N   0  0  0  0  0  0  0  0  0  0  0  0
   -0.3440   -1.1593   -4.2567 C   0  0  0  0  0  0  0  0  0  0  0  0
    0.4706    0.2832   -4.4792 P   0  0  0  0  0  0  0  0  0  0  0  0
    1.9288   -0.2339   -5.1683 C   0  0  0  0  0  0  0  0  0  0  0  0
    2.2794   -1.5853   -5.3608 C   0  0  0  0  0  0  0  0  0  0  0  0
    3.5001   -1.8489   -6.0266 C   0  0  0  0  0  0  0  0  0  0  0  0
    4.3393   -0.8133   -6.4602 C   0  0  0  0  0  0  0  0  0  0  0  0
    4.0232    0.5079   -6.1924 C   0  0  0  0  0  0  0  0  0  0  0  0
    2.8142    0.7967   -5.5582 C   0  0  0  0  0  0  0  0  0  0  0  0
    4.7884    1.5805   -6.5482 O   0  0  0  0  0  0  0  0  0  0  0  0
    6.1496    1.3172   -6.8942 C   0  0  2  0  0  0  0  0  0  0  0  0
    6.4427    0.0194   -7.6123 C   0  0  0  0  0  0  0  0  0  0  0  0
    7.3823   -0.1409   -8.3804 O   0  0  0  0  0  0  0  0  0  0  0  0
    5.5183   -1.1234   -7.2733 C   0  0  0  0  0  0  0  0  0  0  0  0
    5.7214   -2.2480   -7.7054 O   0  0  0  0  0  0  0  0  0  0  0  0
    7.0274    1.4664   -5.6920 C   0  0  1  0  0  0  0  0  0  0  0  0
    6.7564    0.5832   -4.5759 O   0  0  0  0  0  0  0  0  0  0  0  0
    8.4096    1.6894   -5.9837 O   0  0  0  0  0  0  0  0  0  0  0  0
    7.7555    2.6928   -5.3705 C   0  0  0  0  0  0  0  0  0  0  0  0
    7.9685    3.2177   -4.3009 O   0  0  0  0  0  0  0  0  0  0  0  0
    3.9245   -3.4523   -0.7161 C   0  0  0  0  0  0  0  0  0  0  0  0
    3.0743   -2.6681   -0.3208 O   0  0  0  0  0  0  0  0  0  0  0  0
    5.1933   -3.6631    0.0671 C   0  0  0  0  0  0  0  0  0  0  0  0
    5.2332   -3.3829    1.2557 O   0  0  0  0  0  0  0  0  0  0  0  0
    6.4023   -4.2617   -0.6129 C   0  0  0  0  0  0  0  0  0  0  0  0
    7.4395   -4.4695   -0.0036 O   0  0  0  0  0  0  0  0  0  0  0  0
  1  2  1  0  0  0  0
  2  3  2  0  0  0  0
  3  4  1  0  0  0  0
  3 50  1  0  0  0  0
  4  5  1  0  0  0  0
  5  6  1  6  0  0  0
  5 46  1  0  0  0  0
  6  7  1  0  0  0  0
  7  8  2  0  0  0  0
  7 12  1  0  0  0  0
  8  9  1  0  0  0  0
  8 25  1  0  0  0  0
  9 10  1  0  0  0  0
 10 11  2  0  0  0  0
 10 21  1  0  0  0  0
 11 12  1  0  0  0  0
 11 13  1  0  0  0  0
 13 14  2  0  0  0  0
 13 19  1  0  0  0  0
 14 15  1  0  0  0  0
 15 16  2  0  0  0  0
 15 17  1  0  0  0  0
 17 18  2  0  0  0  0
 18 19  1  0  0  0  0
 19 20  2  0  0  0  0
 20 21  1  0  0  0  0
 20 22  1  0  0  0  0
 22 23  1  0  0  0  0
 22 24  1  0  0  0  0
 23 24  1  0  0  0  0
 25 26  2  0  0  0  0
 25 30  1  0  0  0  0
 26 27  1  0  0  0  0
 27 28  2  0  0  0  0
 28 29  1  0  0  0  0
 29 30  2  0  0  0  0
 29 34  1  0  0  0  0
 30 31  1  0  0  0  0
 31 32  2  0  0  0  0
 32 33  1  0  0  0  0
 32 39  1  0  0  0  0
 33 34  2  0  0  0  0
 33 35  1  0  0  0  0
 36 35  1  1  0  0  0
 36 37  1  0  0  0  0
 36 41  1  0  0  0  0
 37 38  2  0  0  0  0
 37 39  1  0  0  0  0
 39 40  2  0  0  0  0
 41 42  1  1  0  0  0
 41 43  1  0  0  0  0
 41 44  1  0  0  0  0
 43 44  1  0  0  0  0
 44 45  2  0  0  0  0
 46 47  2  0  0  0  0
 46 48  1  0  0  0  0
 48 49  2  0  0  0  0
 48 50  1  0  0  0  0
 50 51  2  0  0  0  0
M  END
$$$$