
 OpenBabel11262000473D

 54 62  0  0  1  0  0  0  0  0999 V2000
    5.3006   -4.2704   -1.5078 O   0  0  0  0  0  0  0  0  0  0  0  0
    5.4728   -3.0421   -0.9155 C   0  0  0  0  0  0  0  0  0  0  0  0
    4.6157   -2.5493   -0.0144 C   0  0  0  0  0  0  0  0  0  0  0  0
    3.4824   -3.2612    0.3388 O   0  0  0  0  0  0  0  0  0  0  0  0
    3.2046   -3.1187    1.7204 C   0  0  2  0  0  0  0  0  0  0  0  0
    2.1374   -4.0113    2.1263 O   0  0  0  0  0  0  0  0  0  0  0  0
    2.3590   -5.3795    2.0381 C   0  0  0  0  0  0  0  0  0  0  0  0
    1.3818   -6.2364    2.3957 C   0  0  0  0  0  0  0  0  0  0  0  0
    1.5418   -7.6307    2.3687 O   0  0  0  0  0  0  0  0  0  0  0  0
    2.7965   -8.1795    2.0198 C   0  0  0  0  0  0  0  0  0  0  0  0
    3.8187   -7.3838    1.6532 C   0  0  0  0  0  0  0  0  0  0  0  0
    3.6922   -5.8947    1.5542 C   0  0  0  0  0  0  0  0  0  0  0  0
    5.1809   -7.9260    1.2931 C   0  0  3  0  0  0  0  0  0  0  0  0
    6.0984   -7.3961    2.2385 O   0  0  0  0  0  0  0  0  0  0  0  0
    7.3716   -7.8374    2.1704 C   0  0  0  0  0  0  0  0  0  0  0  0
    8.2992   -7.2099    2.7800 N   0  0  0  0  0  0  0  0  0  0  0  0
    7.6274   -8.9599    1.4851 O   0  0  0  0  0  0  0  0  0  0  0  0
    6.6102   -9.8460    1.0305 C   0  0  3  0  0  0  0  0  0  0  0  0
    5.2372   -9.4013    1.4052 C   0  0  0  0  0  0  0  0  0  0  0  0
    4.1757  -10.1556    1.7638 C   0  0  0  0  0  0  0  0  0  0  0  0
    2.9578   -9.5508    2.0682 O   0  3  0  0  0  0  0  0  0  0  0  0
    4.1555  -11.6393    1.8563 C   0  0  0  0  0  0  0  0  0  0  0  0
    3.3049  -12.2769    2.8275 O   0  0  0  0  0  0  0  0  0  0  0  0
    2.9861  -12.3600    1.4276 O   0  0  0  0  0  0  0  0  0  0  0  0
    6.6781   -9.8605   -0.3237 F   0  0  0  0  0  0  0  0  0  0  0  0
    0.0721   -5.7229    2.8920 C   0  0  0  0  0  0  0  0  0  0  0  0
   -0.0605   -5.4452    4.2661 C   0  0  0  0  0  0  0  0  0  0  0  0
   -1.2098   -4.9519    4.7471 N   0  3  0  0  0  0  0  0  0  0  0  0
   -1.3174   -4.7060    6.0696 F   0  0  0  0  0  0  0  0  0  0  0  0
   -2.2575   -4.6956    3.9566 C   0  0  0  0  0  0  0  0  0  0  0  0
   -2.1683   -4.9384    2.5802 C   0  0  0  0  0  0  0  0  0  0  0  0
   -0.9874   -5.4505    2.0467 N   0  3  0  0  0  0  0  0  0  0  0  0
   -0.9336   -5.6684    0.6953 C   0  0  0  0  0  0  0  0  0  0  0  0
   -2.0348   -5.4242   -0.1314 C   0  0  0  0  0  0  0  0  0  0  0  0
   -1.9667   -5.8049   -1.5375 C   0  0  0  0  0  0  0  0  0  0  0  0
   -0.9511   -6.3406   -1.9432 O   0  0  0  0  0  0  0  0  0  0  0  0
   -3.2297   -5.6050   -2.3495 C   0  0  0  0  0  0  0  0  0  0  0  0
   -3.4938   -6.3653   -3.2642 O   0  0  0  0  0  0  0  0  0  0  0  0
   -4.1434   -4.5257   -1.8018 C   0  0  1  0  0  0  0  0  0  0  0  0
   -4.3212   -4.6695   -0.3691 O   0  0  0  0  0  0  0  0  0  0  0  0
   -3.2078   -4.9136    0.3757 C   0  0  0  0  0  0  0  0  0  0  0  0
   -3.2653   -4.6825    1.7402 C   0  0  0  0  0  0  0  0  0  0  0  0
   -4.3972   -4.2219    2.2889 F   0  0  0  0  0  0  0  0  0  0  0  0
   -3.7505   -3.1073   -2.1302 C   0  0  1  0  0  0  0  0  0  0  0  0
   -4.6812   -2.0923   -1.6967 O   0  0  0  0  0  0  0  0  0  0  0  0
   -2.3949   -2.7765   -1.8458 O   0  0  0  0  0  0  0  0  0  0  0  0
   -2.7633   -2.7589   -3.1484 C   0  0  0  0  0  0  0  0  0  0  0  0
   -2.2836   -3.4246   -4.0423 O   0  0  0  0  0  0  0  0  0  0  0  0
    2.7751   -1.6781    1.9493 C   0  0  0  0  0  0  0  0  0  0  0  0
    1.7127   -1.4195    2.5259 O   0  0  0  0  0  0  0  0  0  0  0  0
    3.7737   -0.6366    1.4745 C   0  0  3  0  0  0  0  0  0  0  0  0
    4.8943   -1.2256    0.6349 C   0  0  0  0  0  0  0  0  0  0  0  0
    5.9865   -0.6807    0.5102 O   0  0  0  0  0  0  0  0  0  0  0  0
    3.1390    0.3699    0.8104 F   0  0  0  0  0  0  0  0  0  0  0  0
  1  2  1  0  0  0  0
  2  3  2  0  0  0  0
  3  4  1  0  0  0  0
  3 52  1  0  0  0  0
  4  5  1  0  0  0  0
  5  6  1  6  0  0  0
  5 49  1  0  0  0  0
  6  7  1  0  0  0  0
  7  8  2  0  0  0  0
  7 12  1  0  0  0  0
  8  9  1  0  0  0  0
  8 26  1  0  0  0  0
  9 10  1  0  0  0  0
 10 11  2  0  0  0  0
 10 21  1  0  0  0  0
 11 12  1  0  0  0  0
 11 13  1  0  0  0  0
 13 14  1  0  0  0  0
 13 19  1  0  0  0  0
 14 15  1  0  0  0  0
 15 16  2  0  0  0  0
 15 17  1  0  0  0  0
 17 18  1  0  0  0  0
 18 19  1  0  0  0  0
 18 25  1  0  0  0  0
 19 20  2  0  0  0  0
 20 21  1  0  0  0  0
 20 22  1  0  0  0  0
 22 23  1  0  0  0  0
 22 24  1  0  0  0  0
 23 24  1  0  0  0  0
 26 27  2  0  0  0  0
 26 32  1  0  0  0  0
 27 28  1  0  0  0  0
 28 29  1  0  0  0  0
 28 30  2  0  0  0  0
 30 31  1  0  0  0  0
 31 32  2  0  0  0  0
 31 42  1  0  0  0  0
 32 33  1  0  0  0  0
 33 34  2  0  0  0  0
 34 35  1  0  0  0  0
 34 41  1  0  0  0  0
 35 36  2  0  0  0  0
 35 37  1  0  0  0  0
 37 38  2  0  0  0  0
 39 37  1  1  0  0  0
 39 40  1  0  0  0  0
 39 44  1  0  0  0  0
 40 41  1  0  0  0  0
 41 42  2  0  0  0  0
 42 43  1  0  0  0  0
 44 45  1  1  0  0  0
 44 46  1  0  0  0  0
 44 47  1  0  0  0  0
 46 47  1  0  0  0  0
 47 48  2  0  0  0  0
 49 50  2  0  0  0  0
 49 51  1  0  0  0  0
 51 52  1  0  0  0  0
 51 54  1  0  0  0  0
 52 53  2  0  0  0  0
M  CHG  3  21   1  28   1  32   1
M  END
$$$$