
 OpenBabel11242000093D

 54 62  0  0  1  0  0  0  0  0999 V2000
    4.9596   -0.5030    0.4173 O   0  0  0  0  0  0  0  0  0  0  0  0
    4.0988   -0.4329   -0.6484 C   0  0  0  0  0  0  0  0  0  0  0  0
    3.3089   -1.4544   -1.0049 C   0  0  0  0  0  0  0  0  0  0  0  0
    3.3703   -2.6722   -0.3365 O   0  0  0  0  0  0  0  0  0  0  0  0
    2.1112   -3.3096   -0.1627 C   0  0  2  0  0  0  0  0  0  0  0  0
    2.2602   -4.4614    0.7107 O   0  0  0  0  0  0  0  0  0  0  0  0
    2.6190   -5.7146    0.2274 C   0  0  0  0  0  0  0  0  0  0  0  0
    2.1526   -6.8518    0.8075 C   0  0  0  0  0  0  0  0  0  0  0  0
    2.3413   -8.1101    0.1748 O   0  0  0  0  0  0  0  0  0  0  0  0
    2.9190   -8.1897   -1.1118 C   0  0  0  0  0  0  0  0  0  0  0  0
    3.5604   -7.1291   -1.6282 C   0  0  0  0  0  0  0  0  0  0  0  0
    3.5794   -5.7915   -0.9383 C   0  0  0  0  0  0  0  0  0  0  0  0
    4.1814   -7.1474   -2.9834 C   0  0  3  0  0  0  0  0  0  0  0  0
    5.5062   -6.6634   -2.9488 O   0  0  0  0  0  0  0  0  0  0  0  0
    6.0091   -6.4373   -4.2067 C   0  0  0  0  0  0  0  0  0  0  0  0
    6.8816   -5.6291   -4.4422 O   0  0  0  0  0  0  0  0  0  0  0  0
    5.4293   -7.2464   -5.1533 O   0  0  0  0  0  0  0  0  0  0  0  0
    5.2499   -8.5438   -4.6602 C   0  0  3  0  0  0  0  0  0  0  0  0
    4.2556   -8.5375   -3.5295 C   0  0  0  0  0  0  0  0  0  0  0  0
    3.4963   -9.5820   -3.0761 C   0  0  0  0  0  0  0  0  0  0  0  0
    2.7895   -9.3925   -1.8324 O   0  3  0  0  0  0  0  0  0  0  0  0
    3.4359  -10.9098   -3.9040 C   0  0  3  0  0  0  0  0  0  0  0  0
    2.7768  -11.9173   -3.2525 O   0  3  0  0  0  0  0  0  0  0  0  0
    4.0084  -11.9804   -3.2856 O   0  3  0  0  0  0  0  0  0  0  0  0
    4.6482   -9.4094   -5.6076 O   0  0  0  0  0  0  0  0  0  0  0  0
    1.4437   -6.8599    2.1637 C   0  0  0  0  0  0  0  0  0  0  0  0
    1.7600   -5.8507    3.0916 C   0  0  0  0  0  0  0  0  0  0  0  0
    1.1708   -5.7705    4.2911 N   0  3  0  0  0  0  0  0  0  0  0  0
    1.4953   -4.7584    5.1201 F   0  0  0  0  0  0  0  0  0  0  0  0
    0.2942   -6.6524    4.7054 N   0  0  0  0  0  0  0  0  0  0  0  0
   -0.0267   -7.6796    3.9274 C   0  0  0  0  0  0  0  0  0  0  0  0
    0.5220   -7.8430    2.6292 C   0  0  0  0  0  0  0  0  0  0  0  0
    0.0963   -8.9801    1.9073 C   0  0  0  0  0  0  0  0  0  0  0  0
   -0.8148   -9.9055    2.4446 C   0  0  0  0  0  0  0  0  0  0  0  0
   -1.2309  -11.0537    1.6413 C   0  0  0  0  0  0  0  0  0  0  0  0
   -0.6683  -11.2727    0.5720 O   0  0  0  0  0  0  0  0  0  0  0  0
   -2.3325  -11.9227    2.2165 C   0  0  0  0  0  0  0  0  0  0  0  0
   -2.4978  -13.0411    1.7552 O   0  0  0  0  0  0  0  0  0  0  0  0
   -3.1360  -11.2753    3.3325 C   0  0  1  0  0  0  0  0  0  0  0  0
   -2.3006  -10.5360    4.2489 O   0  0  0  0  0  0  0  0  0  0  0  0
   -1.3495   -9.7255    3.7025 C   0  0  0  0  0  0  0  0  0  0  0  0
   -0.9338   -8.6150    4.4308 C   0  0  0  0  0  0  0  0  0  0  0  0
   -1.4518   -8.4143    5.6524 F   0  0  0  0  0  0  0  0  0  0  0  0
   -4.2978  -10.4637    2.8004 C   0  0  1  0  0  0  0  0  0  0  0  0
   -5.2769  -11.1881    2.0368 O   0  0  0  0  0  0  0  0  0  0  0  0
   -4.8067   -9.4442    3.6707 O   0  0  0  0  0  0  0  0  0  0  0  0
   -4.2477   -9.0371    2.5317 C   0  0  0  0  0  0  0  0  0  0  0  0
   -3.3044   -8.3004    2.2767 O   0  0  0  0  0  0  0  0  0  0  0  0
    1.4368   -3.5916   -1.5046 C   0  0  0  0  0  0  0  0  0  0  0  0
    1.0040   -4.6868   -1.8584 O   0  0  0  0  0  0  0  0  0  0  0  0
    1.4853   -2.4299   -2.4554 C   0  0  0  0  0  0  0  0  0  0  0  0
    0.8135   -2.5014   -3.4715 O   0  0  0  0  0  0  0  0  0  0  0  0
    2.4172   -1.2659   -2.1879 C   0  0  0  0  0  0  0  0  0  0  0  0
    2.4328   -0.2917   -2.9165 O   0  0  0  0  0  0  0  0  0  0  0  0
  1  2  1  0  0  0  0
  2  3  2  0  0  0  0
  3  4  1  0  0  0  0
  3 53  1  0  0  0  0
  4  5  1  0  0  0  0
  5  6  1  6  0  0  0
  5 49  1  0  0  0  0
  6  7  1  0  0  0  0
  7  8  2  0  0  0  0
  7 12  1  0  0  0  0
  8  9  1  0  0  0  0
  8 26  1  0  0  0  0
  9 10  1  0  0  0  0
 10 11  2  0  0  0  0
 10 21  1  0  0  0  0
 11 12  1  0  0  0  0
 11 13  1  0  0  0  0
 13 14  1  0  0  0  0
 13 19  1  0  0  0  0
 14 15  1  0  0  0  0
 15 16  2  0  0  0  0
 15 17  1  0  0  0  0
 17 18  1  0  0  0  0
 18 19  1  0  0  0  0
 18 25  1  0  0  0  0
 19 20  2  0  0  0  0
 20 21  1  0  0  0  0
 20 22  1  0  0  0  0
 22 23  1  0  0  0  0
 22 24  1  0  0  0  0
 23 24  2  0  0  0  0
 26 27  2  0  0  0  0
 26 32  1  0  0  0  0
 27 28  1  0  0  0  0
 28 29  1  0  0  0  0
 28 30  2  0  0  0  0
 30 31  1  0  0  0  0
 31 32  2  0  0  0  0
 31 42  1  0  0  0  0
 32 33  1  0  0  0  0
 33 34  2  0  0  0  0
 34 35  1  0  0  0  0
 34 41  1  0  0  0  0
 35 36  2  0  0  0  0
 35 37  1  0  0  0  0
 37 38  2  0  0  0  0
 39 37  1  6  0  0  0
 39 40  1  0  0  0  0
 39 44  1  0  0  0  0
 40 41  1  0  0  0  0
 41 42  2  0  0  0  0
 42 43  1  0  0  0  0
 44 45  1  6  0  0  0
 44 46  1  0  0  0  0
 44 47  1  0  0  0  0
 46 47  1  0  0  0  0
 47 48  2  0  0  0  0
 49 50  2  0  0  0  0
 49 51  1  0  0  0  0
 51 52  2  0  0  0  0
 51 53  1  0  0  0  0
 53 54  2  0  0  0  0
M  CHG  4  21   1  23   1  24   1  28   1
M  END
$$$$