
 OpenBabel09232009403D

 52 60  0  0  1  0  0  0  0  0999 V2000
    4.8460   -6.9723   -0.1168 F   0  0  0  0  0  0  0  0  0  0  0  0
    4.2103   -6.3696    0.9060 C   0  0  0  0  0  0  0  0  0  0  0  0
    3.5077   -5.2529    0.7158 C   0  0  0  0  0  0  0  0  0  0  0  0
    3.4325   -4.6644   -0.5348 O   0  0  0  0  0  0  0  0  0  0  0  0
    2.1072   -4.2510   -0.8520 C   0  0  2  0  0  0  0  0  0  0  0  0
    2.0401   -3.7435   -2.2001 O   0  0  0  0  0  0  0  0  0  0  0  0
    2.3866   -4.6081   -3.2285 C   0  0  0  0  0  0  0  0  0  0  0  0
    2.9190   -4.1282   -4.3678 C   0  0  0  0  0  0  0  0  0  0  0  0
    3.2088   -4.8992   -5.4785 O   0  0  0  0  0  0  0  0  0  0  0  0
    2.9063   -6.2436   -5.4603 C   0  0  0  0  0  0  0  0  0  0  0  0
    2.3683   -6.8595   -4.3448 C   0  0  0  0  0  0  0  0  0  0  0  0
    2.0899   -6.0779   -3.0976 C   0  0  0  0  0  0  0  0  0  0  0  0
    2.1195   -8.2274   -4.4450 C   0  0  0  0  0  0  0  0  0  0  0  0
    1.5977   -8.9338   -3.3558 N   0  0  0  0  0  0  0  0  0  0  0  0
    1.4142  -10.2780   -3.3191 C   0  0  0  0  0  0  0  0  0  0  0  0
    0.9885  -10.8238   -2.3078 O   0  0  0  0  0  0  0  0  0  0  0  0
    1.7513  -10.9745   -4.4269 N   0  0  0  0  0  0  0  0  0  0  0  0
    2.0359  -10.3788   -5.7098 C   0  0  0  0  0  0  0  0  0  0  0  0
    2.3850   -8.9199   -5.6307 C   0  0  0  0  0  0  0  0  0  0  0  0
    2.9039   -8.2118   -6.7268 C   0  0  0  0  0  0  0  0  0  0  0  0
    3.1670   -6.8784   -6.6227 N   0  0  0  0  0  0  0  0  0  0  0  0
    3.1885   -8.8890   -8.0494 C   0  0  3  0  0  0  0  0  0  0  0  0
    2.1015   -8.9251   -8.9980 O   0  0  0  0  0  0  0  0  0  0  0  0
    3.2333   -8.1299   -9.3449 C   0  0  3  0  0  0  0  0  0  0  0  0
    4.0548   -8.6220  -10.3451 F   0  0  0  0  0  0  0  0  0  0  0  0
    3.2934   -2.7114   -4.5314 C   0  0  0  0  0  0  0  0  0  0  0  0
    4.5641   -2.4379   -4.1689 N   0  0  0  0  0  0  0  0  0  0  0  0
    4.9588   -1.1865   -4.3546 C   0  0  0  0  0  0  0  0  0  0  0  0
    4.1964   -0.2182   -4.8526 N   0  0  0  0  0  0  0  0  0  0  0  0
    2.9443   -0.5438   -5.1853 C   0  0  0  0  0  0  0  0  0  0  0  0
    2.4232   -1.8047   -5.0410 N   0  3  0  0  0  0  0  0  0  0  0  0
    1.1421   -2.0703   -5.3957 C   0  0  0  0  0  0  0  0  0  0  0  0
    0.3281   -1.0743   -5.9220 C   0  0  0  0  0  0  0  0  0  0  0  0
    0.8211    0.1987   -6.0970 C   0  0  0  0  0  0  0  0  0  0  0  0
    2.1299    0.4573   -5.7091 C   0  0  0  0  0  0  0  0  0  0  0  0
    0.1300    1.2160   -6.6907 O   0  0  0  0  0  0  0  0  0  0  0  0
   -0.9971    0.8498   -7.5219 C   0  0  2  0  0  0  0  0  0  0  0  0
   -1.8415   -0.2400   -6.8964 C   0  0  0  0  0  0  0  0  0  0  0  0
   -3.0586   -0.2414   -6.8135 O   0  0  0  0  0  0  0  0  0  0  0  0
   -1.0357   -1.3833   -6.3274 C   0  0  0  0  0  0  0  0  0  0  0  0
   -1.4686   -2.5146   -6.2026 O   0  0  0  0  0  0  0  0  0  0  0  0
   -0.5976    0.5050   -8.9394 C   0  0  3  0  0  0  0  0  0  0  0  0
   -1.6674    0.1359   -9.8271 O   0  0  0  0  0  0  0  0  0  0  0  0
    0.4272    1.3265   -9.5169 O   0  0  0  0  0  0  0  0  0  0  0  0
    0.7251    0.0379   -9.3203 C   0  0  0  0  0  0  0  0  0  0  0  0
    1.6004   -0.5215   -8.6839 O   0  0  0  0  0  0  0  0  0  0  0  0
    1.6441   -3.1408    0.0818 C   0  0  0  0  0  0  0  0  0  0  0  0
    0.9433   -2.1950   -0.2498 O   0  0  0  0  0  0  0  0  0  0  0  0
    2.1033   -3.3421    1.5109 C   0  0  0  0  0  0  0  0  0  0  0  0
    1.9549   -2.4626    2.3412 O   0  0  0  0  0  0  0  0  0  0  0  0
    2.7931   -4.6451    1.8688 C   0  0  0  0  0  0  0  0  0  0  0  0
    2.6961   -5.1557    2.9686 O   0  0  0  0  0  0  0  0  0  0  0  0
  1  2  1  0  0  0  0
  2  3  2  0  0  0  0
  3  4  1  0  0  0  0
  3 51  1  0  0  0  0
  4  5  1  0  0  0  0
  5  6  1  6  0  0  0
  5 47  1  0  0  0  0
  6  7  1  0  0  0  0
  7  8  2  0  0  0  0
  7 12  1  0  0  0  0
  8  9  1  0  0  0  0
  8 26  1  0  0  0  0
  9 10  1  0  0  0  0
 10 11  2  0  0  0  0
 10 21  1  0  0  0  0
 11 12  1  0  0  0  0
 11 13  1  0  0  0  0
 13 14  1  0  0  0  0
 13 19  2  0  0  0  0
 14 15  1  0  0  0  0
 15 16  2  0  0  0  0
 15 17  1  0  0  0  0
 17 18  1  0  0  0  0
 18 19  1  0  0  0  0
 19 20  1  0  0  0  0
 20 21  2  0  0  0  0
 20 22  1  0  0  0  0
 22 23  1  0  0  0  0
 22 24  1  0  0  0  0
 23 24  1  0  0  0  0
 24 25  1  0  0  0  0
 26 27  2  0  0  0  0
 26 31  1  0  0  0  0
 27 28  1  0  0  0  0
 28 29  2  0  0  0  0
 29 30  1  0  0  0  0
 30 31  2  0  0  0  0
 30 35  1  0  0  0  0
 31 32  1  0  0  0  0
 32 33  2  0  0  0  0
 33 34  1  0  0  0  0
 33 40  1  0  0  0  0
 34 35  2  0  0  0  0
 34 36  1  0  0  0  0
 37 36  1  1  0  0  0
 37 38  1  0  0  0  0
 37 42  1  0  0  0  0
 38 39  2  0  0  0  0
 38 40  1  0  0  0  0
 40 41  2  0  0  0  0
 42 43  1  0  0  0  0
 42 44  1  0  0  0  0
 42 45  1  0  0  0  0
 44 45  1  0  0  0  0
 45 46  2  0  0  0  0
 47 48  2  0  0  0  0
 47 49  1  0  0  0  0
 49 50  2  0  0  0  0
 49 51  1  0  0  0  0
 51 52  2  0  0  0  0
M  CHG  1  31   1
M  END
$$$$