
 OpenBabel11232023093D

 54 62  0  0  1  0  0  0  0  0999 V2000
    4.1177   -1.2774    7.4028 O   0  0  0  0  0  0  0  0  0  0  0  0
    5.0467   -1.1835    6.3986 C   0  0  0  0  0  0  0  0  0  0  0  0
    5.0125   -1.9706    5.3185 C   0  0  0  0  0  0  0  0  0  0  0  0
    4.0569   -2.9713    5.1813 O   0  0  0  0  0  0  0  0  0  0  0  0
    3.4122   -2.9472    3.9103 C   0  0  2  0  0  0  0  0  0  0  0  0
    2.3477   -3.9316    3.9028 O   0  0  0  0  0  0  0  0  0  0  0  0
    2.5922   -5.2352    3.4934 C   0  0  0  0  0  0  0  0  0  0  0  0
    1.6459   -5.9473    2.8336 C   0  0  0  0  0  0  0  0  0  0  0  0
    1.9814   -7.1727    2.2219 O   0  0  0  0  0  0  0  0  0  0  0  0
    3.3292   -7.4619    1.9657 C   0  0  0  0  0  0  0  0  0  0  0  0
    4.2981   -6.8859    2.7163 C   0  0  0  0  0  0  0  0  0  0  0  0
    3.9297   -5.8938    3.7881 C   0  0  0  0  0  0  0  0  0  0  0  0
    5.7709   -7.1188    2.4628 C   0  0  3  0  0  0  0  0  0  0  0  0
    6.4671   -7.4540    3.6466 O   0  0  0  0  0  0  0  0  0  0  0  0
    7.8260   -7.5628    3.4701 C   0  0  0  0  0  0  0  0  0  0  0  0
    8.6274   -7.3497    4.3568 O   0  0  0  0  0  0  0  0  0  0  0  0
    8.1857   -7.9706    2.2107 O   0  0  0  0  0  0  0  0  0  0  0  0
    7.2904   -8.9244    1.6568 C   0  0  3  0  0  0  0  0  0  0  0  0
    5.9456   -8.2754    1.5585 C   0  0  0  0  0  0  0  0  0  0  0  0
    4.9428   -8.7666    0.8230 C   0  0  0  0  0  0  0  0  0  0  0  0
    3.6344   -8.3466    0.9331 O   0  3  0  0  0  0  0  0  0  0  0  0
    5.3975   -9.8588   -0.0437 C   0  0  0  0  0  0  0  0  0  0  0  0
    6.6121  -10.2295   -0.2432 O   0  3  0  0  0  0  0  0  0  0  0  0
    7.6809   -9.4353    0.3528 O   0  0  0  0  0  0  0  0  0  0  0  0
    4.3621  -10.4768   -0.6112 O   0  0  0  0  0  0  0  0  0  0  0  0
    0.1927   -5.5464    2.7306 C   0  0  0  0  0  0  0  0  0  0  0  0
   -0.3875   -4.8327    3.7864 C   0  0  0  0  0  0  0  0  0  0  0  0
   -1.6868   -4.5124    3.7881 N   0  3  0  0  0  0  0  0  0  0  0  0
   -2.1879   -3.8120    4.8247 F   0  0  0  0  0  0  0  0  0  0  0  0
   -2.5095   -4.8799    2.8278 N   0  0  0  0  0  0  0  0  0  0  0  0
   -2.0528   -5.5937    1.7988 C   0  0  0  0  0  0  0  0  0  0  0  0
   -0.6891   -5.9421    1.6887 C   0  0  0  0  0  0  0  0  0  0  0  0
   -0.3083   -6.6848    0.5511 C   0  0  0  0  0  0  0  0  0  0  0  0
   -1.2414   -7.1503   -0.3833 C   0  0  0  0  0  0  0  0  0  0  0  0
   -0.7964   -8.0782   -1.4228 C   0  0  0  0  0  0  0  0  0  0  0  0
    0.3433   -8.5317   -1.3693 O   0  0  0  0  0  0  0  0  0  0  0  0
   -1.8229   -8.4841   -2.4609 C   0  0  0  0  0  0  0  0  0  0  0  0
   -1.5655   -9.3908   -3.2369 O   0  0  0  0  0  0  0  0  0  0  0  0
   -3.0920   -7.6479   -2.4573 C   0  0  1  0  0  0  0  0  0  0  0  0
   -3.5306   -7.2200   -1.1546 O   0  0  0  0  0  0  0  0  0  0  0  0
   -2.5705   -6.8082   -0.2780 C   0  0  0  0  0  0  0  0  0  0  0  0
   -2.9528   -6.0257    0.8139 C   0  0  0  0  0  0  0  0  0  0  0  0
   -4.2458   -5.6892    0.9411 F   0  0  0  0  0  0  0  0  0  0  0  0
   -2.9404   -6.4646   -3.3573 C   0  0  1  0  0  0  0  0  0  0  0  0
   -1.8985   -5.5135   -3.0017 O   0  0  0  0  0  0  0  0  0  0  0  0
   -3.0868   -6.7315   -4.7430 O   0  0  0  0  0  0  0  0  0  0  0  0
   -4.0212   -5.9265   -4.1931 C   0  0  0  0  0  0  0  0  0  0  0  0
   -4.2641   -4.7594   -4.4099 O   0  0  0  0  0  0  0  0  0  0  0  0
    4.3834   -3.0564    2.7228 C   0  0  0  0  0  0  0  0  0  0  0  0
    4.1115   -3.5252    1.6228 O   0  0  0  0  0  0  0  0  0  0  0  0
    5.8056   -2.7661    3.1167 C   0  0  0  0  0  0  0  0  0  0  0  0
    6.6870   -3.4858    2.6697 O   0  0  0  0  0  0  0  0  0  0  0  0
    6.0353   -1.7936    4.2503 C   0  0  0  0  0  0  0  0  0  0  0  0
    6.9135   -0.9575    4.2179 O   0  0  0  0  0  0  0  0  0  0  0  0
  1  2  1  0  0  0  0
  2  3  2  0  0  0  0
  3  4  1  0  0  0  0
  3 53  1  0  0  0  0
  4  5  1  0  0  0  0
  5  6  1  1  0  0  0
  5 49  1  0  0  0  0
  6  7  1  0  0  0  0
  7  8  2  0  0  0  0
  7 12  1  0  0  0  0
  8  9  1  0  0  0  0
  8 26  1  0  0  0  0
  9 10  1  0  0  0  0
 10 11  2  0  0  0  0
 10 21  1  0  0  0  0
 11 12  1  0  0  0  0
 11 13  1  0  0  0  0
 13 14  1  0  0  0  0
 13 19  1  0  0  0  0
 14 15  1  0  0  0  0
 15 16  2  0  0  0  0
 15 17  1  0  0  0  0
 17 18  1  0  0  0  0
 18 19  1  0  0  0  0
 18 24  1  0  0  0  0
 19 20  2  0  0  0  0
 20 21  1  0  0  0  0
 20 22  1  0  0  0  0
 22 23  2  0  0  0  0
 22 25  1  0  0  0  0
 23 24  1  0  0  0  0
 26 27  2  0  0  0  0
 26 32  1  0  0  0  0
 27 28  1  0  0  0  0
 28 29  1  0  0  0  0
 28 30  2  0  0  0  0
 30 31  1  0  0  0  0
 31 32  2  0  0  0  0
 31 42  1  0  0  0  0
 32 33  1  0  0  0  0
 33 34  2  0  0  0  0
 34 35  1  0  0  0  0
 34 41  1  0  0  0  0
 35 36  2  0  0  0  0
 35 37  1  0  0  0  0
 37 38  2  0  0  0  0
 39 37  1  1  0  0  0
 39 40  1  0  0  0  0
 39 44  1  0  0  0  0
 40 41  1  0  0  0  0
 41 42  2  0  0  0  0
 42 43  1  0  0  0  0
 44 45  1  1  0  0  0
 44 46  1  0  0  0  0
 44 47  1  0  0  0  0
 46 47  1  0  0  0  0
 47 48  2  0  0  0  0
 49 50  2  0  0  0  0
 49 51  1  0  0  0  0
 51 52  2  0  0  0  0
 51 53  1  0  0  0  0
 53 54  2  0  0  0  0
M  CHG  3  21   1  23   1  28   1
M  END
$$$$