
 OpenBabel09202022263D

 46 52  0  0  1  0  0  0  0  0999 V2000
   11.8626   -0.9464    4.2210 O   0  0  0  0  0  0  0  0  0  0  0  0
   12.3505   -2.2828    4.1111 C   0  0  0  0  0  0  0  0  0  0  0  0
   11.6288   -3.2108    5.0978 C   0  0  2  0  0  0  0  0  0  0  0  0
   10.2254   -3.2632    4.8504 O   0  0  0  0  0  0  0  0  0  0  0  0
    9.4673   -2.3095    5.4715 C   0  0  0  0  0  0  0  0  0  0  0  0
    8.2040   -2.0853    4.9304 C   0  0  0  0  0  0  0  0  0  0  0  0
    7.3543   -1.0904    5.4547 C   0  0  0  0  0  0  0  0  0  0  0  0
    6.1011   -0.8831    4.8813 C   0  0  0  0  0  0  0  0  0  0  0  0
    5.2923    0.1126    5.3958 C   0  0  0  0  0  0  0  0  0  0  0  0
    5.6463    0.9280    6.4125 N   0  0  0  0  0  0  0  0  0  0  0  0
    6.8716    0.7435    6.9757 C   0  0  0  0  0  0  0  0  0  0  0  0
    7.7621   -0.2869    6.5525 C   0  0  0  0  0  0  0  0  0  0  0  0
    9.0219   -0.5822    7.1268 C   0  0  0  0  0  0  0  0  0  0  0  0
    9.8599   -1.5749    6.5835 C   0  0  0  0  0  0  0  0  0  0  0  0
   11.1704   -1.8421    7.1883 C   0  0  0  0  0  0  0  0  0  0  0  0
   11.5385   -1.2746    8.2191 O   0  0  0  0  0  0  0  0  0  0  0  0
   12.0524   -2.8564    6.5014 C   0  0  0  0  0  0  0  0  0  0  0  0
   13.0607   -3.2973    7.0396 O   0  0  0  0  0  0  0  0  0  0  0  0
    7.1866    1.7273    8.0499 C   0  0  0  0  0  0  0  0  0  0  0  0
    7.7803    2.9260    7.8244 C   0  0  0  0  0  0  0  0  0  0  0  0
    8.1752    3.3685    6.5586 O   0  0  0  0  0  0  0  0  0  0  0  0
    8.1729    4.7981    6.3356 C   0  0  1  0  0  0  0  0  0  0  0  0
    9.1708    5.4616    7.1243 O   0  0  0  0  0  0  0  0  0  0  0  0
    9.1958    6.8869    6.9458 C   0  0  1  0  0  0  0  0  0  0  0  0
    9.9476    7.5496    8.1035 C   0  0  0  0  0  0  0  0  0  0  0  0
    9.2753    7.2521    9.3293 O   0  0  0  0  0  0  0  0  0  0  0  0
    9.9179    7.0984    5.6423 C   0  0  0  0  0  0  0  0  0  0  0  0
   10.7362    7.9728    5.4243 O   0  0  0  0  0  0  0  0  0  0  0  0
    9.4758    6.1203    4.5683 C   0  0  0  0  0  0  0  0  0  0  0  0
    9.9758    6.1879    3.4566 O   0  0  0  0  0  0  0  0  0  0  0  0
    8.3986    5.0937    4.8543 C   0  0  0  0  0  0  0  0  0  0  0  0
    7.7212    4.6446    3.9395 O   0  0  0  0  0  0  0  0  0  0  0  0
    8.0768    3.8164    8.9950 C   0  0  0  0  0  0  0  0  0  0  0  0
    7.3254    3.4869   10.2303 C   0  0  0  0  0  0  0  0  0  0  0  0
    6.7361    2.2401   10.3634 C   0  0  0  0  0  0  0  0  0  0  0  0
    6.7679    1.3135    9.3269 O   0  0  0  0  0  0  0  0  0  0  0  0
    6.0759    1.8651   11.4842 N   0  0  0  0  0  0  0  0  0  0  0  0
    5.9643    2.7971   12.4552 C   0  0  0  0  0  0  0  0  0  0  0  0
    5.3309    2.3496   13.5701 O   0  0  0  0  0  0  0  0  0  0  0  0
    6.4410    4.0906   12.3950 C   0  0  0  0  0  0  0  0  0  0  0  0
    7.1639    4.4220   11.2614 C   0  0  0  0  0  0  0  0  0  0  0  0
    7.6855    5.7251   11.1670 N   0  0  0  0  0  0  0  0  0  0  0  0
    7.3252    6.7513   11.9884 C   0  0  0  0  0  0  0  0  0  0  0  0
    7.7111    7.9011   11.7982 O   0  0  0  0  0  0  0  0  0  0  0  0
    6.4792    6.4464   13.0055 N   0  0  0  0  0  0  0  0  0  0  0  0
    6.3066    5.0936   13.4896 C   0  0  0  0  0  0  0  0  0  0  0  0
  1  2  1  0  0  0  0
  3  4  1  0  0  0  0
  3 17  1  0  0  0  0
  3  2  1  6  0  0  0
  4  5  1  0  0  0  0
  5  6  2  0  0  0  0
  5 14  1  0  0  0  0
  6  7  1  0  0  0  0
  7  8  2  0  0  0  0
  7 12  1  0  0  0  0
  8  9  1  0  0  0  0
  9 10  2  0  0  0  0
 10 11  1  0  0  0  0
 11 12  2  0  0  0  0
 11 19  1  0  0  0  0
 12 13  1  0  0  0  0
 13 14  2  0  0  0  0
 14 15  1  0  0  0  0
 15 16  2  0  0  0  0
 15 17  1  0  0  0  0
 17 18  2  0  0  0  0
 19 20  2  0  0  0  0
 19 36  1  0  0  0  0
 20 21  1  0  0  0  0
 20 33  1  0  0  0  0
 22 21  1  6  0  0  0
 22 23  1  0  0  0  0
 22 31  1  0  0  0  0
 23 24  1  0  0  0  0
 24 27  1  0  0  0  0
 24 25  1  1  0  0  0
 25 26  1  0  0  0  0
 27 28  2  0  0  0  0
 27 29  1  0  0  0  0
 29 30  2  0  0  0  0
 29 31  1  0  0  0  0
 31 32  2  0  0  0  0
 33 34  1  0  0  0  0
 34 35  2  0  0  0  0
 34 41  1  0  0  0  0
 35 36  1  0  0  0  0
 35 37  1  0  0  0  0
 37 38  2  0  0  0  0
 38 39  1  0  0  0  0
 38 40  1  0  0  0  0
 40 41  2  0  0  0  0
 40 46  1  0  0  0  0
 41 42  1  0  0  0  0
 42 43  1  0  0  0  0
 43 44  2  0  0  0  0
 43 45  1  0  0  0  0
 45 46  1  0  0  0  0
M  END
$$$$