
 OpenBabel11242001483D

 54 62  0  0  1  0  0  0  0  0999 V2000
   -0.3526    0.6844   -1.1962 O   0  0  0  0  0  0  0  0  0  0  0  0
    0.9518    0.8246   -0.7994 C   0  0  0  0  0  0  0  0  0  0  0  0
    1.9451    0.0838   -1.3050 C   0  0  0  0  0  0  0  0  0  0  0  0
    1.7021   -0.9178   -2.2359 O   0  0  0  0  0  0  0  0  0  0  0  0
    2.5333   -0.7630   -3.3817 C   0  0  2  0  0  0  0  0  0  0  0  0
    2.1452   -1.7322   -4.3857 O   0  0  0  0  0  0  0  0  0  0  0  0
    2.3274   -1.4240   -5.7074 C   0  0  0  0  0  0  0  0  0  0  0  0
    2.2074   -0.1199   -6.1856 C   0  0  0  0  0  0  0  0  0  0  0  0
    2.4459    0.2052   -7.5314 C   0  0  0  0  0  0  0  0  0  0  0  0
    2.7128   -0.8446   -8.4120 C   0  0  0  0  0  0  0  0  0  0  0  0
    2.7292   -2.1351   -7.9747 N   0  0  0  0  0  0  0  0  0  0  0  0
    2.5898   -2.4397   -6.6449 C   0  0  0  0  0  0  0  0  0  0  0  0
    2.7600   -3.9028   -6.3123 C   0  0  0  0  0  0  0  0  0  0  0  0
    2.0664   -4.4674   -5.2386 C   0  0  0  0  0  0  0  0  0  0  0  0
    2.2109   -5.7543   -4.9021 N   0  3  0  0  0  0  0  0  0  0  0  0
    1.5402   -6.2310   -3.8349 F   0  0  0  0  0  0  0  0  0  0  0  0
    2.9756   -6.5858   -5.5754 N   0  0  0  0  0  0  0  0  0  0  0  0
    3.6487   -6.1532   -6.6403 C   0  0  0  0  0  0  0  0  0  0  0  0
    3.5913   -4.8063   -7.0542 C   0  0  0  0  0  0  0  0  0  0  0  0
    4.3752   -4.4683   -8.1870 C   0  0  0  0  0  0  0  0  0  0  0  0
    5.1049   -5.4163   -8.9194 C   0  0  0  0  0  0  0  0  0  0  0  0
    5.8172   -4.9929  -10.1263 C   0  0  0  0  0  0  0  0  0  0  0  0
    5.6800   -3.8558  -10.5545 O   0  0  0  0  0  0  0  0  0  0  0  0
    6.6952   -6.0263  -10.7897 C   0  0  0  0  0  0  0  0  0  0  0  0
    7.5974   -5.6809  -11.5358 O   0  0  0  0  0  0  0  0  0  0  0  0
    6.3101   -7.4594  -10.4801 C   0  0  1  0  0  0  0  0  0  0  0  0
    5.8459   -7.7132   -9.1448 O   0  0  0  0  0  0  0  0  0  0  0  0
    5.1425   -6.7300   -8.5140 C   0  0  0  0  0  0  0  0  0  0  0  0
    4.4271   -7.0696   -7.3632 C   0  0  0  0  0  0  0  0  0  0  0  0
    4.4656   -8.3437   -6.9391 F   0  0  0  0  0  0  0  0  0  0  0  0
    5.2923   -7.9396  -11.4621 C   0  0  1  0  0  0  0  0  0  0  0  0
    4.0219   -7.2354  -11.4682 O   0  0  0  0  0  0  0  0  0  0  0  0
    5.8043   -8.3102  -12.7356 O   0  0  0  0  0  0  0  0  0  0  0  0
    5.2549   -9.3023  -12.0036 C   0  0  0  0  0  0  0  0  0  0  0  0
    4.2813   -9.9847  -12.2337 O   0  0  0  0  0  0  0  0  0  0  0  0
    2.9702   -0.5288   -9.6919 N   0  3  0  0  0  0  0  0  0  0  0  0
    2.9923    0.7235  -10.1930 C   0  0  0  0  0  0  0  0  0  0  0  0
    2.7181    1.7934   -9.3047 C   0  0  0  0  0  0  0  0  0  0  0  0
    2.4363    1.5303   -7.9730 C   0  0  0  0  0  0  0  0  0  0  0  0
    2.1766    2.5119   -7.0968 N   0  0  0  0  0  0  0  0  0  0  0  0
    2.1660    3.7793   -7.5179 C   0  0  0  0  0  0  0  0  0  0  0  0
    1.8408    4.7463   -6.6071 N   0  0  0  0  0  0  0  0  0  0  0  0
    2.4477    4.1413   -8.7622 N   0  0  0  0  0  0  0  0  0  0  0  0
    2.7135    3.1489   -9.6110 C   0  0  0  0  0  0  0  0  0  0  0  0
    2.9943    3.5800  -10.8659 O   0  0  0  0  0  0  0  0  0  0  0  0
    3.3531    0.8578  -11.6415 C   0  0  0  0  0  0  0  0  0  0  0  0
    4.7505    0.8801  -11.9524 O   0  0  0  0  0  0  0  0  0  0  0  0
    3.9634   -0.2892  -12.2550 O   0  0  0  0  0  0  0  0  0  0  0  0
    3.9802   -1.0134   -3.0023 C   0  0  0  0  0  0  0  0  0  0  0  0
    4.7513   -1.6990   -3.6622 O   0  0  0  0  0  0  0  0  0  0  0  0
    4.3994   -0.2885   -1.7422 C   0  0  0  0  0  0  0  0  0  0  0  0
    5.5836   -0.2206   -1.4602 O   0  0  0  0  0  0  0  0  0  0  0  0
    3.3435    0.3933   -0.8872 C   0  0  0  0  0  0  0  0  0  0  0  0
    3.6363    1.1783   -0.0040 O   0  0  0  0  0  0  0  0  0  0  0  0
  1  2  1  0  0  0  0
  2  3  2  0  0  0  0
  3  4  1  0  0  0  0
  3 53  1  0  0  0  0
  4  5  1  0  0  0  0
  5  6  1  6  0  0  0
  5 49  1  0  0  0  0
  6  7  1  0  0  0  0
  7  8  2  0  0  0  0
  7 12  1  0  0  0  0
  8  9  1  0  0  0  0
  9 10  2  0  0  0  0
  9 39  1  0  0  0  0
 10 11  1  0  0  0  0
 10 36  1  0  0  0  0
 11 12  2  0  0  0  0
 12 13  1  0  0  0  0
 13 14  2  0  0  0  0
 13 19  1  0  0  0  0
 14 15  1  0  0  0  0
 15 16  1  0  0  0  0
 15 17  2  0  0  0  0
 17 18  1  0  0  0  0
 18 19  2  0  0  0  0
 18 29  1  0  0  0  0
 19 20  1  0  0  0  0
 20 21  2  0  0  0  0
 21 22  1  0  0  0  0
 21 28  1  0  0  0  0
 22 23  2  0  0  0  0
 22 24  1  0  0  0  0
 24 25  2  0  0  0  0
 26 24  1  1  0  0  0
 26 27  1  0  0  0  0
 26 31  1  0  0  0  0
 27 28  1  0  0  0  0
 28 29  2  0  0  0  0
 29 30  1  0  0  0  0
 31 32  1  6  0  0  0
 31 33  1  0  0  0  0
 31 34  1  0  0  0  0
 33 34  1  0  0  0  0
 34 35  2  0  0  0  0
 36 37  2  0  0  0  0
 37 38  1  0  0  0  0
 37 46  1  0  0  0  0
 38 39  2  0  0  0  0
 38 44  1  0  0  0  0
 39 40  1  0  0  0  0
 40 41  2  0  0  0  0
 41 42  1  0  0  0  0
 41 43  1  0  0  0  0
 43 44  2  0  0  0  0
 44 45  1  0  0  0  0
 46 47  1  0  0  0  0
 46 48  1  0  0  0  0
 47 48  1  0  0  0  0
 49 50  2  0  0  0  0
 49 51  1  0  0  0  0
 51 52  2  0  0  0  0
 51 53  1  0  0  0  0
 53 54  2  0  0  0  0
M  CHG  2  15   1  36   1
M  END
$$$$