
 OpenBabel11212021423D

 54 62  0  0  1  0  0  0  0  0999 V2000
   -0.7264   -4.2501   -3.0274 O   0  0  0  0  0  0  0  0  0  0  0  0
   -0.3607   -2.9448   -2.8026 C   0  0  0  0  0  0  0  0  0  0  0  0
    0.3208   -2.5704   -1.7143 C   0  0  0  0  0  0  0  0  0  0  0  0
    0.6393   -3.5137   -0.7533 O   0  0  0  0  0  0  0  0  0  0  0  0
    1.8308   -3.2590   -0.0258 C   0  0  2  0  0  0  0  0  0  0  0  0
    2.0748   -4.3251    0.9076 O   0  0  0  0  0  0  0  0  0  0  0  0
    2.2413   -5.6075    0.3929 C   0  0  0  0  0  0  0  0  0  0  0  0
    1.9239   -6.7156    1.1111 C   0  0  0  0  0  0  0  0  0  0  0  0
    2.1024   -8.0057    0.5767 O   0  0  0  0  0  0  0  0  0  0  0  0
    2.7180   -8.1801   -0.6713 C   0  0  0  0  0  0  0  0  0  0  0  0
    3.1345   -7.1233   -1.3891 C   0  0  0  0  0  0  0  0  0  0  0  0
    2.8777   -5.7190   -0.9654 C   0  0  0  0  0  0  0  0  0  0  0  0
    3.8873   -7.2614   -2.6797 C   0  0  3  0  0  0  0  0  0  0  0  0
    5.1758   -6.7002   -2.4582 O   0  0  0  0  0  0  0  0  0  0  0  0
    6.0958   -6.8476   -3.4300 C   0  0  0  0  0  0  0  0  0  0  0  0
    7.1544   -6.1335   -3.4203 N   0  0  0  0  0  0  0  0  0  0  0  0
    5.8882   -7.7700   -4.3830 O   0  0  0  0  0  0  0  0  0  0  0  0
    4.8476   -8.7405   -4.3297 C   0  0  3  0  0  0  0  0  0  0  0  0
    4.0719   -8.6777   -3.0608 C   0  0  0  0  0  0  0  0  0  0  0  0
    3.5845   -9.7051   -2.3292 C   0  0  0  0  0  0  0  0  0  0  0  0
    2.9038   -9.4656   -1.1383 O   0  3  0  0  0  0  0  0  0  0  0  0
    3.7521  -11.1273   -2.7049 C   0  0  0  0  0  0  0  0  0  0  0  0
    4.8790  -11.8808   -2.2416 O   0  0  0  0  0  0  0  0  0  0  0  0
    3.5636  -12.1638   -1.7263 O   0  0  0  0  0  0  0  0  0  0  0  0
    3.9102   -8.4678   -5.3520 O   0  0  0  0  0  0  0  0  0  0  0  0
    1.3928   -6.6553    2.5259 C   0  0  0  0  0  0  0  0  0  0  0  0
    1.8326   -5.5916    3.3369 C   0  0  0  0  0  0  0  0  0  0  0  0
    1.3695   -5.4042    4.5764 N   0  3  0  0  0  0  0  0  0  0  0  0
    1.8013   -4.3352    5.2733 F   0  0  0  0  0  0  0  0  0  0  0  0
    0.4928   -6.2316    5.1445 C   0  0  0  0  0  0  0  0  0  0  0  0
    0.0358   -7.3477    4.4548 C   0  0  0  0  0  0  0  0  0  0  0  0
    0.4858   -7.5962    3.1272 C   0  0  0  0  0  0  0  0  0  0  0  0
   -0.0318   -8.7751    2.5293 C   0  0  0  0  0  0  0  0  0  0  0  0
   -0.9362   -9.6284    3.2010 C   0  0  0  0  0  0  0  0  0  0  0  0
   -1.4102  -10.8540    2.5528 C   0  0  0  0  0  0  0  0  0  0  0  0
   -0.9374  -11.2062    1.4823 O   0  0  0  0  0  0  0  0  0  0  0  0
   -2.4563  -11.6573    3.2984 C   0  0  0  0  0  0  0  0  0  0  0  0
   -2.6078  -12.8433    3.0497 O   0  0  0  0  0  0  0  0  0  0  0  0
   -3.2185  -10.8740    4.3459 C   0  0  1  0  0  0  0  0  0  0  0  0
   -2.3467  -10.0428    5.1395 O   0  0  0  0  0  0  0  0  0  0  0  0
   -1.3929   -9.3300    4.4713 C   0  0  0  0  0  0  0  0  0  0  0  0
   -0.8812   -8.1985    5.0929 C   0  0  0  0  0  0  0  0  0  0  0  0
   -1.2987   -7.8856    6.3296 F   0  0  0  0  0  0  0  0  0  0  0  0
   -4.3992  -10.1244    3.7694 C   0  0  1  0  0  0  0  0  0  0  0  0
   -5.4037  -10.9239    3.1190 O   0  0  0  0  0  0  0  0  0  0  0  0
   -4.9184   -9.0576    4.5810 O   0  0  0  0  0  0  0  0  0  0  0  0
   -4.3767   -8.7187    3.4078 C   0  0  0  0  0  0  0  0  0  0  0  0
   -3.4679   -7.9577    3.1158 O   0  0  0  0  0  0  0  0  0  0  0  0
    1.6763   -1.9416    0.7019 C   0  0  0  0  0  0  0  0  0  0  0  0
    1.7241   -1.7788    1.9109 O   0  0  0  0  0  0  0  0  0  0  0  0
    1.4669   -0.8224   -0.2857 C   0  0  0  0  0  0  0  0  0  0  0  0
    2.0450    0.2374   -0.1235 O   0  0  0  0  0  0  0  0  0  0  0  0
    0.6802   -1.1265   -1.5525 C   0  0  0  0  0  0  0  0  0  0  0  0
    0.4148   -0.2659   -2.3720 O   0  0  0  0  0  0  0  0  0  0  0  0
  1  2  1  0  0  0  0
  2  3  2  0  0  0  0
  3  4  1  0  0  0  0
  3 53  1  0  0  0  0
  4  5  1  0  0  0  0
  5  6  1  1  0  0  0
  5 49  1  0  0  0  0
  6  7  1  0  0  0  0
  7  8  2  0  0  0  0
  7 12  1  0  0  0  0
  8  9  1  0  0  0  0
  8 26  1  0  0  0  0
  9 10  1  0  0  0  0
 10 11  2  0  0  0  0
 10 21  1  0  0  0  0
 11 12  1  0  0  0  0
 11 13  1  0  0  0  0
 13 14  1  0  0  0  0
 13 19  1  0  0  0  0
 14 15  1  0  0  0  0
 15 16  2  0  0  0  0
 15 17  1  0  0  0  0
 17 18  1  0  0  0  0
 18 19  1  0  0  0  0
 18 25  1  0  0  0  0
 19 20  2  0  0  0  0
 20 21  1  0  0  0  0
 20 22  1  0  0  0  0
 22 23  1  0  0  0  0
 22 24  1  0  0  0  0
 23 24  1  0  0  0  0
 26 27  2  0  0  0  0
 26 32  1  0  0  0  0
 27 28  1  0  0  0  0
 28 29  1  0  0  0  0
 28 30  2  0  0  0  0
 30 31  1  0  0  0  0
 31 32  2  0  0  0  0
 31 42  1  0  0  0  0
 32 33  1  0  0  0  0
 33 34  2  0  0  0  0
 34 35  1  0  0  0  0
 34 41  1  0  0  0  0
 35 36  2  0  0  0  0
 35 37  1  0  0  0  0
 37 38  2  0  0  0  0
 39 37  1  6  0  0  0
 39 40  1  0  0  0  0
 39 44  1  0  0  0  0
 40 41  1  0  0  0  0
 41 42  2  0  0  0  0
 42 43  1  0  0  0  0
 44 45  1  6  0  0  0
 44 46  1  0  0  0  0
 44 47  1  0  0  0  0
 46 47  1  0  0  0  0
 47 48  2  0  0  0  0
 49 50  2  0  0  0  0
 49 51  1  0  0  0  0
 51 52  2  0  0  0  0
 51 53  1  0  0  0  0
 53 54  2  0  0  0  0
M  CHG  2  21   1  28   1
M  END
$$$$