
 OpenBabel09212009043D

 48 55  0  0  1  0  0  0  0  0999 V2000
    1.6632    3.2207    5.7612 O   0  0  0  0  0  0  0  0  0  0  0  0
    2.1753    3.6944    4.5105 C   0  0  0  0  0  0  0  0  0  0  0  0
    2.2502    2.5334    3.5137 C   0  0  2  0  0  0  0  0  0  0  0  0
    3.1285    1.5312    4.0322 O   0  0  0  0  0  0  0  0  0  0  0  0
    3.0139    0.2715    3.3749 C   0  0  2  0  0  0  0  0  0  0  0  0
    3.9008   -0.7039    3.9517 O   0  0  0  0  0  0  0  0  0  0  0  0
    3.6640   -1.0883    5.2708 C   0  0  0  0  0  0  0  0  0  0  0  0
    4.0003   -2.3131    5.7319 C   0  0  0  0  0  0  0  0  0  0  0  0
    3.8291   -2.7280    7.0499 O   0  0  0  0  0  0  0  0  0  0  0  0
    3.3320   -1.8336    7.9793 C   0  0  0  0  0  0  0  0  0  0  0  0
    2.9757   -0.5411    7.6266 C   0  0  0  0  0  0  0  0  0  0  0  0
    3.1069   -0.0734    6.2194 C   0  0  0  0  0  0  0  0  0  0  0  0
    2.5132    0.3119    8.6327 C   0  0  0  0  0  0  0  0  0  0  0  0
    2.1426    1.6317    8.3430 N   0  0  0  0  0  0  0  0  0  0  0  0
    1.8296    2.5656    9.2821 C   0  0  0  0  0  0  0  0  0  0  0  0
    1.5785    3.7229    8.9619 O   0  0  0  0  0  0  0  0  0  0  0  0
    1.8481    2.1624   10.5770 N   0  0  0  0  0  0  0  0  0  0  0  0
    1.8818    0.7760   10.9944 C   0  0  0  0  0  0  0  0  0  0  0  0
    2.4208   -0.1308    9.9429 C   0  0  0  0  0  0  0  0  0  0  0  0
    2.7807   -1.4432   10.1713 C   0  0  0  0  0  0  0  0  0  0  0  0
    3.2347   -2.3065    9.2436 N   0  0  0  0  0  0  0  0  0  0  0  0
    2.6850   -1.9833   11.4134 O   0  0  0  0  0  0  0  0  0  0  0  0
    4.5849   -3.3458    4.8531 C   0  0  0  0  0  0  0  0  0  0  0  0
    3.6644   -4.1433    4.2491 N   0  0  0  0  0  0  0  0  0  0  0  0
    4.1163   -5.0431    3.3536 C   0  0  0  0  0  0  0  0  0  0  0  0
    5.4453   -5.1776    2.9972 C   0  0  0  0  0  0  0  0  0  0  0  0
    6.3899   -4.3480    3.6028 C   0  0  0  0  0  0  0  0  0  0  0  0
    5.9756   -3.4267    4.5953 C   0  0  0  0  0  0  0  0  0  0  0  0
    6.9684   -2.6456    5.2331 C   0  0  0  0  0  0  0  0  0  0  0  0
    8.2990   -2.6996    4.8060 C   0  0  0  0  0  0  0  0  0  0  0  0
    8.6655   -3.5169    3.7413 C   0  0  0  0  0  0  0  0  0  0  0  0
    7.7330   -4.3922    3.1935 C   0  0  0  0  0  0  0  0  0  0  0  0
    9.8924   -3.4831    3.1348 O   0  0  0  0  0  0  0  0  0  0  0  0
   10.5994   -2.2403    3.2856 C   0  0  2  0  0  0  0  0  0  0  0  0
   10.6538   -1.7786    4.7230 C   0  0  0  0  0  0  0  0  0  0  0  0
   11.6584   -1.3565    5.2816 O   0  0  0  0  0  0  0  0  0  0  0  0
    9.3217   -1.8505    5.4336 C   0  0  0  0  0  0  0  0  0  0  0  0
    9.1177   -1.2410    6.4732 O   0  0  0  0  0  0  0  0  0  0  0  0
   10.0423   -1.1612    2.3596 C   0  0  0  0  0  0  0  0  0  0  0  0
    8.6550   -0.8199    2.5502 O   0  0  0  0  0  0  0  0  0  0  0  0
   10.9105    0.0174    1.9991 C   0  0  0  0  0  0  0  0  0  0  0  0
   10.5532   -0.9964    0.9496 C   0  0  0  0  0  0  0  0  0  0  0  0
    3.3588    0.4203    1.8981 C   0  0  0  0  0  0  0  0  0  0  0  0
    3.4796   -0.5121    1.1037 O   0  0  0  0  0  0  0  0  0  0  0  0
    3.4770    1.8496    1.4194 C   0  0  0  0  0  0  0  0  0  0  0  0
    4.0670    2.0943    0.3729 O   0  0  0  0  0  0  0  0  0  0  0  0
    2.8549    2.9851    2.2092 C   0  0  0  0  0  0  0  0  0  0  0  0
    2.8284    4.1338    1.7824 O   0  0  0  0  0  0  0  0  0  0  0  0
  1  2  1  0  0  0  0
  3  4  1  0  0  0  0
  3 47  1  0  0  0  0
  3  2  1  1  0  0  0
  4  5  1  0  0  0  0
  5  6  1  1  0  0  0
  5 43  1  0  0  0  0
  6  7  1  0  0  0  0
  7  8  2  0  0  0  0
  7 12  1  0  0  0  0
  8  9  1  0  0  0  0
  8 23  1  0  0  0  0
  9 10  1  0  0  0  0
 10 11  2  0  0  0  0
 10 21  1  0  0  0  0
 11 12  1  0  0  0  0
 11 13  1  0  0  0  0
 13 14  1  0  0  0  0
 13 19  2  0  0  0  0
 14 15  1  0  0  0  0
 15 16  2  0  0  0  0
 15 17  1  0  0  0  0
 17 18  1  0  0  0  0
 18 19  1  0  0  0  0
 19 20  1  0  0  0  0
 20 21  2  0  0  0  0
 20 22  1  0  0  0  0
 23 24  2  0  0  0  0
 23 28  1  0  0  0  0
 24 25  1  0  0  0  0
 25 26  2  0  0  0  0
 26 27  1  0  0  0  0
 27 28  2  0  0  0  0
 27 32  1  0  0  0  0
 28 29  1  0  0  0  0
 29 30  2  0  0  0  0
 30 31  1  0  0  0  0
 30 37  1  0  0  0  0
 31 32  2  0  0  0  0
 31 33  1  0  0  0  0
 33 34  1  0  0  0  0
 34 35  1  0  0  0  0
 34 39  1  6  0  0  0
 35 36  2  0  0  0  0
 35 37  1  0  0  0  0
 37 38  2  0  0  0  0
 39 40  1  0  0  0  0
 39 41  1  0  0  0  0
 39 42  1  0  0  0  0
 41 42  1  0  0  0  0
 43 44  2  0  0  0  0
 43 45  1  0  0  0  0
 45 46  2  0  0  0  0
 45 47  1  0  0  0  0
 47 48  2  0  0  0  0
M  END
$$$$