
 OpenBabel09222001393D

 51 59  0  0  1  0  0  0  0  0999 V2000
    1.9704    0.0209    0.7917 O   0  0  0  0  0  0  0  0  0  0  0  0
    2.8731   -0.1843   -0.0131 C   0  0  0  0  0  0  0  0  0  0  0  0
    3.3182   -1.4338   -0.2855 N   0  0  0  0  0  0  0  0  0  0  0  0
    4.1918   -1.7603   -1.3923 C   0  0  0  0  0  0  0  0  0  0  0  0
    4.9493   -0.5840   -1.9037 C   0  0  0  0  0  0  0  0  0  0  0  0
    4.5717    0.6947   -1.5356 C   0  0  0  0  0  0  0  0  0  0  0  0
    3.4988    0.8441   -0.6443 N   0  0  0  0  0  0  0  0  0  0  0  0
    5.2624    1.8056   -2.0336 C   0  0  0  0  0  0  0  0  0  0  0  0
    4.9120    3.1812   -1.6031 C   0  0  0  0  0  0  0  0  0  0  0  0
    5.7700    4.2746   -2.1536 C   0  0  0  0  0  0  0  0  0  0  0  0
    6.7576    3.9556   -3.0205 C   0  0  0  0  0  0  0  0  0  0  0  0
    7.0368    2.6489   -3.4374 O   0  0  0  0  0  0  0  0  0  0  0  0
    6.3096    1.5945   -2.9142 C   0  0  0  0  0  0  0  0  0  0  0  0
    6.6904    0.3600   -3.3129 N   0  0  0  0  0  0  0  0  0  0  0  0
    6.0004   -0.6751   -2.7935 C   0  0  0  0  0  0  0  0  0  0  0  0
    6.4303   -1.8852   -3.2323 O   0  0  0  0  0  0  0  0  0  0  0  0
    7.6437    4.9592   -3.6517 C   0  0  0  0  0  0  0  0  0  0  0  0
    8.7777    5.2304   -2.9535 N   0  0  0  0  0  0  0  0  0  0  0  0
    9.6673    6.0722   -3.5179 C   0  0  0  0  0  0  0  0  0  0  0  0
    9.4994    6.6545   -4.7623 C   0  0  0  0  0  0  0  0  0  0  0  0
    8.3433    6.3653   -5.4926 C   0  0  0  0  0  0  0  0  0  0  0  0
    7.3661    5.5123   -4.9272 C   0  0  0  0  0  0  0  0  0  0  0  0
    6.1949    5.2620   -5.6777 C   0  0  0  0  0  0  0  0  0  0  0  0
    6.0352    5.7880   -6.9665 C   0  0  0  0  0  0  0  0  0  0  0  0
    7.0277    6.5714   -7.5401 C   0  0  0  0  0  0  0  0  0  0  0  0
    8.1588    6.8909   -6.7876 C   0  0  0  0  0  0  0  0  0  0  0  0
    6.9864    7.0721   -8.8118 O   0  0  0  0  0  0  0  0  0  0  0  0
    6.0724    6.4398   -9.7153 C   0  0  2  0  0  0  0  0  0  0  0  0
    4.7378    6.0440   -9.1290 C   0  0  0  0  0  0  0  0  0  0  0  0
    3.6801    6.0818   -9.7431 O   0  0  0  0  0  0  0  0  0  0  0  0
    4.8031    5.5181   -7.7156 C   0  0  0  0  0  0  0  0  0  0  0  0
    3.8644    4.9119   -7.2230 O   0  0  0  0  0  0  0  0  0  0  0  0
    6.7181    5.2745  -10.4004 C   0  0  1  0  0  0  0  0  0  0  0  0
    7.1935    4.2026   -9.5510 O   0  0  0  0  0  0  0  0  0  0  0  0
    6.0617    4.8602  -11.6028 O   0  0  0  0  0  0  0  0  0  0  0  0
    7.3131    5.3379  -11.7355 C   0  0  0  0  0  0  0  0  0  0  0  0
    8.3017    4.8010  -12.1795 O   0  0  0  0  0  0  0  0  0  0  0  0
    5.5037    5.5892   -1.7663 O   0  0  0  0  0  0  0  0  0  0  0  0
    4.4449    5.8260   -0.8094 C   0  0  1  0  0  0  0  0  0  0  0  0
    4.9554    5.7498    0.5152 O   0  0  0  0  0  0  0  0  0  0  0  0
    4.2064    6.4206    1.5406 C   0  0  3  0  0  0  0  0  0  0  0  0
    4.0335    7.8898    1.2549 C   0  0  0  0  0  0  0  0  0  0  0  0
    3.9844    8.7586    2.1135 O   0  0  0  0  0  0  0  0  0  0  0  0
    3.8448    8.2156   -0.2050 C   0  0  0  0  0  0  0  0  0  0  0  0
    3.7824    9.3803   -0.5687 O   0  0  0  0  0  0  0  0  0  0  0  0
    3.7370    7.1110   -1.2177 C   0  0  0  0  0  0  0  0  0  0  0  0
    3.0703    7.2504   -2.2344 O   0  0  0  0  0  0  0  0  0  0  0  0
    2.8838    5.7832    1.8366 C   0  0  0  0  0  0  0  0  0  0  0  0
    1.9360    5.6949    0.7710 O   0  0  0  0  0  0  0  0  0  0  0  0
    2.8837    4.7273    2.7896 O   0  0  0  0  0  0  0  0  0  0  0  0
    2.3489    6.0299    3.1341 O   0  0  0  0  0  0  0  0  0  0  0  0
  1  2  2  0  0  0  0
  2  3  1  0  0  0  0
  2  7  1  0  0  0  0
  3  4  1  0  0  0  0
  4  5  1  0  0  0  0
  5  6  2  0  0  0  0
  5 15  1  0  0  0  0
  6  7  1  0  0  0  0
  6  8  1  0  0  0  0
  8  9  1  0  0  0  0
  8 13  2  0  0  0  0
  9 10  1  0  0  0  0
 10 11  2  0  0  0  0
 10 38  1  0  0  0  0
 11 12  1  0  0  0  0
 11 17  1  0  0  0  0
 12 13  1  0  0  0  0
 13 14  1  0  0  0  0
 14 15  2  0  0  0  0
 15 16  1  0  0  0  0
 17 18  2  0  0  0  0
 17 22  1  0  0  0  0
 18 19  1  0  0  0  0
 19 20  2  0  0  0  0
 20 21  1  0  0  0  0
 21 22  2  0  0  0  0
 21 26  1  0  0  0  0
 22 23  1  0  0  0  0
 23 24  2  0  0  0  0
 24 25  1  0  0  0  0
 24 31  1  0  0  0  0
 25 26  2  0  0  0  0
 25 27  1  0  0  0  0
 28 27  1  1  0  0  0
 28 29  1  0  0  0  0
 28 33  1  0  0  0  0
 29 30  2  0  0  0  0
 29 31  1  0  0  0  0
 31 32  2  0  0  0  0
 33 34  1  1  0  0  0
 33 35  1  0  0  0  0
 33 36  1  0  0  0  0
 35 36  1  0  0  0  0
 36 37  2  0  0  0  0
 39 38  1  6  0  0  0
 39 40  1  0  0  0  0
 39 46  1  0  0  0  0
 40 41  1  0  0  0  0
 41 42  1  0  0  0  0
 41 48  1  0  0  0  0
 42 43  2  0  0  0  0
 42 44  1  0  0  0  0
 44 45  2  0  0  0  0
 44 46  1  0  0  0  0
 46 47  2  0  0  0  0
 48 49  1  0  0  0  0
 48 50  1  0  0  0  0
 48 51  1  0  0  0  0
 50 51  1  0  0  0  0
M  END
$$$$