
 OpenBabel11232015103D

 53 61  0  0  1  0  0  0  0  0999 V2000
    1.7644   -3.7740   -1.1563 O   0  0  0  0  0  0  0  0  0  0  0  0
    1.9797   -4.8454   -1.9844 C   0  0  0  0  0  0  0  0  0  0  0  0
    1.9091   -4.7528   -3.3190 C   0  0  0  0  0  0  0  0  0  0  0  0
    1.5253   -3.5782   -3.9344 O   0  0  0  0  0  0  0  0  0  0  0  0
    2.2381   -3.2555   -5.1222 C   0  0  2  0  0  0  0  0  0  0  0  0
    1.8062   -1.9796   -5.6709 O   0  0  0  0  0  0  0  0  0  0  0  0
    2.0584   -0.8347   -4.9202 C   0  0  0  0  0  0  0  0  0  0  0  0
    2.1421    0.4011   -5.4792 C   0  0  0  0  0  0  0  0  0  0  0  0
    2.3536    1.5447   -4.6818 O   0  0  0  0  0  0  0  0  0  0  0  0
    2.7416    1.4104   -3.3502 C   0  0  0  0  0  0  0  0  0  0  0  0
    2.7025    0.2181   -2.7495 C   0  0  0  0  0  0  0  0  0  0  0  0
    2.2207   -1.0003   -3.4253 C   0  0  0  0  0  0  0  0  0  0  0  0
    3.1961    0.0893   -1.3575 C   0  0  0  0  0  0  0  0  0  0  0  0
    3.2408   -1.0715   -0.7875 N   0  0  0  0  0  0  0  0  0  0  0  0
    3.7131   -1.1155    0.4873 C   0  0  0  0  0  0  0  0  0  0  0  0
    3.8024   -2.3017    0.9659 N   0  0  0  0  0  0  0  0  0  0  0  0
    4.0979   -0.0690    1.2675 N   0  0  0  0  0  0  0  0  0  0  0  0
    4.0846    1.0981    0.7143 C   0  0  0  0  0  0  0  0  0  0  0  0
    3.6453    1.3206   -0.6731 C   0  0  0  0  0  0  0  0  0  0  0  0
    3.6202    2.4909   -1.3442 C   0  0  0  0  0  0  0  0  0  0  0  0
    3.1664    2.5231   -2.6656 N   0  0  0  0  0  0  0  0  0  0  0  0
    4.0717    3.7816   -0.7731 C   0  0  0  0  0  0  0  0  0  0  0  0
    5.4356    4.2117   -0.8951 O   0  0  0  0  0  0  0  0  0  0  0  0
    4.3929    4.9099   -1.6041 O   0  0  0  0  0  0  0  0  0  0  0  0
    1.9836    0.7143   -6.9421 C   0  0  0  0  0  0  0  0  0  0  0  0
    1.1322   -0.0639   -7.7245 C   0  0  0  0  0  0  0  0  0  0  0  0
    0.8918    0.2380   -9.0037 N   0  3  0  0  0  0  0  0  0  0  0  0
    0.0994   -0.5758   -9.7280 F   0  0  0  0  0  0  0  0  0  0  0  0
    1.3709    1.3198   -9.5836 N   0  0  0  0  0  0  0  0  0  0  0  0
    2.1948    2.1221   -8.9064 C   0  0  0  0  0  0  0  0  0  0  0  0
    2.5911    1.8325   -7.5851 C   0  0  0  0  0  0  0  0  0  0  0  0
    3.5685    2.6826   -7.0065 C   0  0  0  0  0  0  0  0  0  0  0  0
    4.0322    3.8336   -7.6592 C   0  0  0  0  0  0  0  0  0  0  0  0
    4.9955    4.7125   -6.9943 C   0  0  0  0  0  0  0  0  0  0  0  0
    5.3042    4.5604   -5.8256 O   0  0  0  0  0  0  0  0  0  0  0  0
    5.5695    5.8131   -7.8458 C   0  0  0  0  0  0  0  0  0  0  0  0
    6.7260    6.1745   -7.6987 O   0  0  0  0  0  0  0  0  0  0  0  0
    4.6008    6.3453   -8.8753 C   0  0  1  0  0  0  0  0  0  0  0  0
    3.9039    5.3049   -9.5937 O   0  0  0  0  0  0  0  0  0  0  0  0
    3.5672    4.1647   -8.9164 C   0  0  0  0  0  0  0  0  0  0  0  0
    2.6739    3.2826   -9.5288 C   0  0  0  0  0  0  0  0  0  0  0  0
    2.2342    3.5699  -10.7660 F   0  0  0  0  0  0  0  0  0  0  0  0
    3.6738    7.3756   -8.2761 C   0  0  1  0  0  0  0  0  0  0  0  0
    4.3018    8.5354   -7.6972 O   0  0  0  0  0  0  0  0  0  0  0  0
    2.4722    7.6517   -9.0019 O   0  0  0  0  0  0  0  0  0  0  0  0
    2.3354    7.0618   -7.8062 C   0  0  0  0  0  0  0  0  0  0  0  0
    1.8130    6.0066   -7.4861 O   0  0  0  0  0  0  0  0  0  0  0  0
    1.9788   -4.3166   -6.1742 C   0  0  0  0  0  0  0  0  0  0  0  0
    1.7776   -4.0804   -7.3600 O   0  0  0  0  0  0  0  0  0  0  0  0
    2.0191   -5.7316   -5.6297 C   0  0  0  0  0  0  0  0  0  0  0  0
    1.9411   -6.6750   -6.4006 O   0  0  0  0  0  0  0  0  0  0  0  0
    2.1475   -5.9702   -4.1357 C   0  0  0  0  0  0  0  0  0  0  0  0
    2.4295   -7.0617   -3.6744 O   0  0  0  0  0  0  0  0  0  0  0  0
  1  2  1  0  0  0  0
  2  3  2  0  0  0  0
  3  4  1  0  0  0  0
  3 52  1  0  0  0  0
  4  5  1  0  0  0  0
  5  6  1  6  0  0  0
  5 48  1  0  0  0  0
  6  7  1  0  0  0  0
  7  8  2  0  0  0  0
  7 12  1  0  0  0  0
  8  9  1  0  0  0  0
  8 25  1  0  0  0  0
  9 10  1  0  0  0  0
 10 11  2  0  0  0  0
 10 21  1  0  0  0  0
 11 12  1  0  0  0  0
 11 13  1  0  0  0  0
 13 14  2  0  0  0  0
 13 19  1  0  0  0  0
 14 15  1  0  0  0  0
 15 16  2  0  0  0  0
 15 17  1  0  0  0  0
 17 18  2  0  0  0  0
 18 19  1  0  0  0  0
 19 20  2  0  0  0  0
 20 21  1  0  0  0  0
 20 22  1  0  0  0  0
 22 23  1  0  0  0  0
 22 24  1  0  0  0  0
 23 24  1  0  0  0  0
 25 26  2  0  0  0  0
 25 31  1  0  0  0  0
 26 27  1  0  0  0  0
 27 28  1  0  0  0  0
 27 29  2  0  0  0  0
 29 30  1  0  0  0  0
 30 31  2  0  0  0  0
 30 41  1  0  0  0  0
 31 32  1  0  0  0  0
 32 33  2  0  0  0  0
 33 34  1  0  0  0  0
 33 40  1  0  0  0  0
 34 35  2  0  0  0  0
 34 36  1  0  0  0  0
 36 37  2  0  0  0  0
 38 36  1  1  0  0  0
 38 39  1  0  0  0  0
 38 43  1  0  0  0  0
 39 40  1  0  0  0  0
 40 41  2  0  0  0  0
 41 42  1  0  0  0  0
 43 44  1  1  0  0  0
 43 45  1  0  0  0  0
 43 46  1  0  0  0  0
 45 46  1  0  0  0  0
 46 47  2  0  0  0  0
 48 49  2  0  0  0  0
 48 50  1  0  0  0  0
 50 51  2  0  0  0  0
 50 52  1  0  0  0  0
 52 53  2  0  0  0  0
M  CHG  1  27   1
M  END
$$$$