
 OpenBabel09222010533D

 52 60  0  0  1  0  0  0  0  0999 V2000
   -1.7718    0.9364    5.3739 O   0  0  0  0  0  0  0  0  0  0  0  0
   -1.2102    0.0518    4.4886 C   0  0  0  0  0  0  0  0  0  0  0  0
   -0.3688    0.4021    3.5104 C   0  0  0  0  0  0  0  0  0  0  0  0
    0.0157    1.7255    3.3662 O   0  0  0  0  0  0  0  0  0  0  0  0
    1.3675    1.8631    2.8989 C   0  0  2  0  0  0  0  0  0  0  0  0
    1.7887    3.2256    2.9597 O   0  0  0  0  0  0  0  0  0  0  0  0
    1.7828    3.8343    4.2145 C   0  0  0  0  0  0  0  0  0  0  0  0
    1.5939    5.1632    4.3304 C   0  0  0  0  0  0  0  0  0  0  0  0
    1.5547    5.8416    5.5387 O   0  0  0  0  0  0  0  0  0  0  0  0
    1.7269    5.1406    6.7115 C   0  0  0  0  0  0  0  0  0  0  0  0
    1.9911    3.7858    6.7303 C   0  0  0  0  0  0  0  0  0  0  0  0
    2.0118    3.0105    5.4532 C   0  0  3  0  0  0  0  0  0  0  0  0
    3.2475    2.3109    5.3172 O   0  0  0  0  0  0  0  0  0  0  0  0
    2.1359    3.1854    7.9828 C   0  0  0  0  0  0  0  0  0  0  0  0
    2.4275    1.8191    8.0849 N   0  0  0  0  0  0  0  0  0  0  0  0
    2.4446    1.1144    9.2463 C   0  0  0  0  0  0  0  0  0  0  0  0
    2.6724   -0.0898    9.2652 O   0  0  0  0  0  0  0  0  0  0  0  0
    2.1595    1.8007   10.3800 N   0  0  0  0  0  0  0  0  0  0  0  0
    2.1941    3.2397   10.4749 C   0  0  0  0  0  0  0  0  0  0  0  0
    1.9969    3.9272    9.1569 C   0  0  0  0  0  0  0  0  0  0  0  0
    1.7525    5.3019    9.0523 C   0  0  0  0  0  0  0  0  0  0  0  0
    1.6053    5.8865    7.8302 N   0  0  0  0  0  0  0  0  0  0  0  0
    1.6334    6.1948   10.2651 C   0  0  0  0  0  0  0  0  0  0  0  0
    2.7802    6.3207   11.1209 O   0  0  0  0  0  0  0  0  0  0  0  0
    2.3906    7.4161   10.2705 O   0  0  0  0  0  0  0  0  0  0  0  0
    1.3953    6.0355    3.1577 C   0  0  0  0  0  0  0  0  0  0  0  0
    2.5460    6.5316    2.6346 N   0  0  0  0  0  0  0  0  0  0  0  0
    2.4411    7.3231    1.5495 C   0  0  0  0  0  0  0  0  0  0  0  0
    1.2381    7.6621    0.9564 C   0  0  0  0  0  0  0  0  0  0  0  0
    0.0523    7.1571    1.4957 C   0  0  0  0  0  0  0  0  0  0  0  0
    0.1110    6.3145    2.6288 C   0  0  0  0  0  0  0  0  0  0  0  0
   -1.1075    5.8154    3.1454 C   0  0  0  0  0  0  0  0  0  0  0  0
   -2.3320    6.1280    2.5373 C   0  0  0  0  0  0  0  0  0  0  0  0
   -2.3787    6.9480    1.4186 C   0  0  0  0  0  0  0  0  0  0  0  0
   -1.1900    7.4749    0.9145 C   0  0  0  0  0  0  0  0  0  0  0  0
   -3.5192    7.3038    0.7560 O   0  0  0  0  0  0  0  0  0  0  0  0
   -4.6683    6.4790    0.9675 C   0  0  2  0  0  0  0  0  0  0  0  0
   -4.8567    5.9532    2.3721 C   0  0  0  0  0  0  0  0  0  0  0  0
   -5.9467    5.7793    2.9004 O   0  0  0  0  0  0  0  0  0  0  0  0
   -3.5784    5.5910    3.0909 C   0  0  0  0  0  0  0  0  0  0  0  0
   -3.5860    4.8859    4.0887 O   0  0  0  0  0  0  0  0  0  0  0  0
   -4.7075    5.3678   -0.0370 C   0  0  1  0  0  0  0  0  0  0  0  0
   -3.5796    4.4580   -0.0457 O   0  0  0  0  0  0  0  0  0  0  0  0
   -5.9902    4.7600   -0.2010 O   0  0  0  0  0  0  0  0  0  0  0  0
   -5.4963    5.4139   -1.2692 C   0  0  0  0  0  0  0  0  0  0  0  0
   -5.2412    5.0016   -2.3779 O   0  0  0  0  0  0  0  0  0  0  0  0
    1.4124    1.3345    1.4737 C   0  0  0  0  0  0  0  0  0  0  0  0
    1.7994    1.9297    0.4807 O   0  0  0  0  0  0  0  0  0  0  0  0
    0.8990   -0.0854    1.3921 C   0  0  0  0  0  0  0  0  0  0  0  0
    1.0952   -0.7643    0.3976 O   0  0  0  0  0  0  0  0  0  0  0  0
    0.1359   -0.6484    2.5784 C   0  0  0  0  0  0  0  0  0  0  0  0
   -0.0093   -1.8464    2.7451 O   0  0  0  0  0  0  0  0  0  0  0  0
  1  2  1  0  0  0  0
  2  3  2  0  0  0  0
  3  4  1  0  0  0  0
  3 51  1  0  0  0  0
  4  5  1  0  0  0  0
  5  6  1  6  0  0  0
  5 47  1  0  0  0  0
  6  7  1  0  0  0  0
  7  8  2  0  0  0  0
  7 12  1  0  0  0  0
  8  9  1  0  0  0  0
  8 26  1  0  0  0  0
  9 10  1  0  0  0  0
 10 11  2  0  0  0  0
 10 22  1  0  0  0  0
 11 12  1  0  0  0  0
 11 14  1  0  0  0  0
 12 13  1  0  0  0  0
 14 15  1  0  0  0  0
 14 20  2  0  0  0  0
 15 16  1  0  0  0  0
 16 17  2  0  0  0  0
 16 18  1  0  0  0  0
 18 19  1  0  0  0  0
 19 20  1  0  0  0  0
 20 21  1  0  0  0  0
 21 22  2  0  0  0  0
 21 23  1  0  0  0  0
 23 24  1  0  0  0  0
 23 25  1  0  0  0  0
 24 25  1  0  0  0  0
 26 27  2  0  0  0  0
 26 31  1  0  0  0  0
 27 28  1  0  0  0  0
 28 29  2  0  0  0  0
 29 30  1  0  0  0  0
 30 31  2  0  0  0  0
 30 35  1  0  0  0  0
 31 32  1  0  0  0  0
 32 33  2  0  0  0  0
 33 34  1  0  0  0  0
 33 40  1  0  0  0  0
 34 35  2  0  0  0  0
 34 36  1  0  0  0  0
 37 36  1  1  0  0  0
 37 38  1  0  0  0  0
 37 42  1  0  0  0  0
 38 39  2  0  0  0  0
 38 40  1  0  0  0  0
 40 41  2  0  0  0  0
 42 43  1  6  0  0  0
 42 44  1  0  0  0  0
 42 45  1  0  0  0  0
 44 45  1  0  0  0  0
 45 46  2  0  0  0  0
 47 48  2  0  0  0  0
 47 49  1  0  0  0  0
 49 50  2  0  0  0  0
 49 51  1  0  0  0  0
 51 52  2  0  0  0  0
M  END
$$$$