
 OpenBabel09212011573D

 49 56  0  0  1  0  0  0  0  0999 V2000
    4.6536   -4.2802   -2.9918 O   0  0  0  0  0  0  0  0  0  0  0  0
    3.4776   -4.2926   -3.8021 C   0  0  0  0  0  0  0  0  0  0  0  0
    3.6924   -3.3739   -5.0050 C   0  0  2  0  0  0  0  0  0  0  0  0
    3.9374   -2.0391   -4.5509 O   0  0  0  0  0  0  0  0  0  0  0  0
    4.3273   -1.1668   -5.6090 C   0  0  2  0  0  0  0  0  0  0  0  0
    4.8454    0.0576   -5.0938 O   0  0  0  0  0  0  0  0  0  0  0  0
    6.2095    0.1044   -4.8163 C   0  0  0  0  0  0  0  0  0  0  0  0
    6.8864    1.2709   -4.8534 C   0  0  0  0  0  0  0  0  0  0  0  0
    8.2477    1.3890   -4.6040 O   0  0  0  0  0  0  0  0  0  0  0  0
    8.9896    0.2545   -4.3571 C   0  0  0  0  0  0  0  0  0  0  0  0
    8.4060   -1.0029   -4.2688 C   0  0  0  0  0  0  0  0  0  0  0  0
    6.9298   -1.1627   -4.4427 C   0  0  0  0  0  0  0  0  0  0  0  0
    9.2519   -2.0979   -4.0484 C   0  0  0  0  0  0  0  0  0  0  0  0
    8.7493   -3.4038   -3.9627 N   0  0  0  0  0  0  0  0  0  0  0  0
    9.5018   -4.5047   -3.6971 C   0  0  0  0  0  0  0  0  0  0  0  0
    8.9936   -5.6181   -3.6115 O   0  0  0  0  0  0  0  0  0  0  0  0
   10.8303   -4.3186   -3.5146 N   0  0  0  0  0  0  0  0  0  0  0  0
   11.5315   -3.0795   -3.7587 C   0  0  0  0  0  0  0  0  0  0  0  0
   10.6221   -1.9135   -3.9295 C   0  0  0  0  0  0  0  0  0  0  0  0
   11.0817   -0.6184   -4.0429 C   0  0  0  0  0  0  0  0  0  0  0  0
   10.3200    0.4675   -4.2482 N   0  0  0  0  0  0  0  0  0  0  0  0
   12.4083   -0.3412   -3.9804 O   0  0  0  0  0  0  0  0  0  0  0  0
    6.2454    2.5633   -5.1703 C   0  0  0  0  0  0  0  0  0  0  0  0
    5.7490    3.2173   -4.0868 N   0  0  0  0  0  0  0  0  0  0  0  0
    5.1831    4.4218   -4.2930 C   0  0  0  0  0  0  0  0  0  0  0  0
    5.0992    5.0306   -5.5310 C   0  0  0  0  0  0  0  0  0  0  0  0
    5.6275    4.3711   -6.6429 C   0  0  0  0  0  0  0  0  0  0  0  0
    6.2135    3.0938   -6.4846 C   0  0  0  0  0  0  0  0  0  0  0  0
    6.7253    2.4543   -7.6408 C   0  0  0  0  0  0  0  0  0  0  0  0
    6.6807    3.0814   -8.8948 C   0  0  0  0  0  0  0  0  0  0  0  0
    6.1374    4.3503   -9.0261 C   0  0  0  0  0  0  0  0  0  0  0  0
    5.5898    4.9790   -7.9092 C   0  0  0  0  0  0  0  0  0  0  0  0
    6.0675    5.0541  -10.1899 O   0  0  0  0  0  0  0  0  0  0  0  0
    6.9368    4.6438  -11.2445 C   0  0  2  0  0  0  0  0  0  0  0  0
    7.1835    3.1594  -11.3872 C   0  0  0  0  0  0  0  0  0  0  0  0
    7.4501    2.6064  -12.4458 O   0  0  0  0  0  0  0  0  0  0  0  0
    7.1894    2.3893  -10.0852 C   0  0  0  0  0  0  0  0  0  0  0  0
    7.5959    1.2381  -10.0327 O   0  0  0  0  0  0  0  0  0  0  0  0
    8.2423    5.3832  -11.1665 C   0  0  2  0  0  0  0  0  0  0  0  0
    9.1970    4.9215  -10.1875 O   0  0  0  0  0  0  0  0  0  0  0  0
    8.1730    6.8072  -11.2667 O   0  0  0  0  0  0  0  0  0  0  0  0
    8.7256    6.1521  -12.3032 C   0  0  0  0  0  0  0  0  0  0  0  0
    8.4154    6.1723  -13.4795 O   0  0  0  0  0  0  0  0  0  0  0  0
    3.1262   -0.9323   -6.5147 C   0  0  0  0  0  0  0  0  0  0  0  0
    2.7891    0.1304   -7.0142 O   0  0  0  0  0  0  0  0  0  0  0  0
    2.3912   -2.2135   -6.8436 C   0  0  0  0  0  0  0  0  0  0  0  0
    1.7678   -2.3101   -7.8901 O   0  0  0  0  0  0  0  0  0  0  0  0
    2.4830   -3.4047   -5.9128 C   0  0  0  0  0  0  0  0  0  0  0  0
    1.6686   -4.3135   -5.9665 O   0  0  0  0  0  0  0  0  0  0  0  0
  1  2  1  0  0  0  0
  3  4  1  0  0  0  0
  3 48  1  0  0  0  0
  3  2  1  1  0  0  0
  4  5  1  0  0  0  0
  5  6  1  1  0  0  0
  5 44  1  0  0  0  0
  6  7  1  0  0  0  0
  7  8  2  0  0  0  0
  7 12  1  0  0  0  0
  8  9  1  0  0  0  0
  8 23  1  0  0  0  0
  9 10  1  0  0  0  0
 10 11  2  0  0  0  0
 10 21  1  0  0  0  0
 11 12  1  0  0  0  0
 11 13  1  0  0  0  0
 13 14  1  0  0  0  0
 13 19  2  0  0  0  0
 14 15  1  0  0  0  0
 15 16  2  0  0  0  0
 15 17  1  0  0  0  0
 17 18  1  0  0  0  0
 18 19  1  0  0  0  0
 19 20  1  0  0  0  0
 20 21  2  0  0  0  0
 20 22  1  0  0  0  0
 23 24  2  0  0  0  0
 23 28  1  0  0  0  0
 24 25  1  0  0  0  0
 25 26  2  0  0  0  0
 26 27  1  0  0  0  0
 27 28  2  0  0  0  0
 27 32  1  0  0  0  0
 28 29  1  0  0  0  0
 29 30  2  0  0  0  0
 30 31  1  0  0  0  0
 30 37  1  0  0  0  0
 31 32  2  0  0  0  0
 31 33  1  0  0  0  0
 34 33  1  1  0  0  0
 34 35  1  0  0  0  0
 35 36  2  0  0  0  0
 35 37  1  0  0  0  0
 37 38  2  0  0  0  0
 39 41  1  0  0  0  0
 39 42  1  0  0  0  0
 39 34  1  0  0  0  0
 39 40  1  1  0  0  0
 41 42  1  0  0  0  0
 42 43  2  0  0  0  0
 44 45  2  0  0  0  0
 44 46  1  0  0  0  0
 46 47  2  0  0  0  0
 46 48  1  0  0  0  0
 48 49  2  0  0  0  0
M  END
$$$$