
 OpenBabel11212014053D

 51 59  0  0  1  0  0  0  0  0999 V2000
    7.1596   -3.4039   -5.4818 O   0  0  0  0  0  0  0  0  0  0  0  0
    6.9711   -4.0594   -4.2917 C   0  0  0  0  0  0  0  0  0  0  0  0
    5.9101   -3.8812   -3.4968 C   0  0  0  0  0  0  0  0  0  0  0  0
    4.9069   -2.9957   -3.8535 O   0  0  0  0  0  0  0  0  0  0  0  0
    3.6050   -3.4281   -3.4458 C   0  0  2  0  0  0  0  0  0  0  0  0
    2.5918   -2.5318   -3.9303 O   0  0  0  0  0  0  0  0  0  0  0  0
    2.4749   -2.4292   -5.3105 C   0  0  0  0  0  0  0  0  0  0  0  0
    2.1033   -1.2727   -5.9004 C   0  0  0  0  0  0  0  0  0  0  0  0
    1.9504   -1.1304   -7.2785 O   0  0  0  0  0  0  0  0  0  0  0  0
    2.0700   -2.2483   -8.0921 C   0  0  0  0  0  0  0  0  0  0  0  0
    2.3781   -3.4509   -7.5836 C   0  0  0  0  0  0  0  0  0  0  0  0
    2.6701   -3.6729   -6.1424 C   0  0  0  0  0  0  0  0  0  0  0  0
    2.4316   -4.6136   -8.5080 C   0  0  0  0  0  0  0  0  0  0  0  0
    2.6357   -5.8055   -8.0531 N   0  0  0  0  0  0  0  0  0  0  0  0
    2.6483   -6.8658   -8.9389 C   0  0  0  0  0  0  0  0  0  0  0  0
    2.7192   -7.9973   -8.4776 O   0  0  0  0  0  0  0  0  0  0  0  0
    2.5830   -6.7118  -10.3104 N   0  0  0  0  0  0  0  0  0  0  0  0
    2.3916   -5.5317  -10.7905 C   0  0  0  0  0  0  0  0  0  0  0  0
    2.2470   -4.3453   -9.9485 C   0  0  0  0  0  0  0  0  0  0  0  0
    1.9838   -3.0932  -10.3718 C   0  0  0  0  0  0  0  0  0  0  0  0
    1.8552   -2.0729   -9.4371 N   0  0  0  0  0  0  0  0  0  0  0  0
    1.8172   -2.7106  -11.7922 C   0  0  0  0  0  0  0  0  0  0  0  0
    2.2254   -1.4241  -12.2867 O   0  0  0  0  0  0  0  0  0  0  0  0
    2.9445   -2.6099  -12.6768 O   0  0  0  0  0  0  0  0  0  0  0  0
    1.7739   -0.0535   -5.1454 C   0  0  0  0  0  0  0  0  0  0  0  0
    2.8160    0.7697   -4.9120 N   0  0  0  0  0  0  0  0  0  0  0  0
    2.6049    1.8896   -4.2820 N   0  0  0  0  0  0  0  0  0  0  0  0
    1.4058    2.2511   -3.8775 N   0  0  0  0  0  0  0  0  0  0  0  0
    0.3448    1.4649   -4.0919 C   0  0  0  0  0  0  0  0  0  0  0  0
    0.4714    0.2460   -4.7452 C   0  0  0  0  0  0  0  0  0  0  0  0
   -0.6773   -0.5623   -4.9518 C   0  0  0  0  0  0  0  0  0  0  0  0
   -1.9336   -0.1352   -4.5114 C   0  0  0  0  0  0  0  0  0  0  0  0
   -2.0655    1.0862   -3.8778 C   0  0  0  0  0  0  0  0  0  0  0  0
   -0.9230    1.8657   -3.6639 C   0  0  0  0  0  0  0  0  0  0  0  0
   -3.2363    1.5825   -3.3927 O   0  0  0  0  0  0  0  0  0  0  0  0
   -4.4537    1.0384   -3.9061 C   0  0  2  0  0  0  0  0  0  0  0  0
   -4.4585   -0.3985   -4.3772 C   0  0  0  0  0  0  0  0  0  0  0  0
   -5.4859   -1.0190   -4.6206 O   0  0  0  0  0  0  0  0  0  0  0  0
   -3.1081   -0.9872   -4.7011 C   0  0  0  0  0  0  0  0  0  0  0  0
   -3.0081   -2.1215   -5.1422 O   0  0  0  0  0  0  0  0  0  0  0  0
   -5.0268    1.9666   -4.9393 C   0  0  1  0  0  0  0  0  0  0  0  0
   -5.2957    3.3184   -4.4915 O   0  0  0  0  0  0  0  0  0  0  0  0
   -4.4397    1.8404   -6.2352 O   0  0  0  0  0  0  0  0  0  0  0  0
   -5.7634    1.5615   -6.1457 C   0  0  0  0  0  0  0  0  0  0  0  0
   -6.6885    2.0956   -6.7029 O   0  0  0  0  0  0  0  0  0  0  0  0
    3.5026   -3.5259   -1.9300 C   0  0  0  0  0  0  0  0  0  0  0  0
    2.5330   -3.2138   -1.2543 O   0  0  0  0  0  0  0  0  0  0  0  0
    4.7210   -4.1675   -1.3072 C   0  0  0  0  0  0  0  0  0  0  0  0
    4.8058   -4.3036   -0.0976 O   0  0  0  0  0  0  0  0  0  0  0  0
    5.8448   -4.6300   -2.2113 C   0  0  0  0  0  0  0  0  0  0  0  0
    6.5823   -5.5505   -1.9064 O   0  0  0  0  0  0  0  0  0  0  0  0
  1  2  1  0  0  0  0
  2  3  2  0  0  0  0
  3  4  1  0  0  0  0
  3 50  1  0  0  0  0
  4  5  1  0  0  0  0
  5  6  1  1  0  0  0
  5 46  1  0  0  0  0
  6  7  1  0  0  0  0
  7  8  2  0  0  0  0
  7 12  1  0  0  0  0
  8  9  1  0  0  0  0
  8 25  1  0  0  0  0
  9 10  1  0  0  0  0
 10 11  2  0  0  0  0
 10 21  1  0  0  0  0
 11 12  1  0  0  0  0
 11 13  1  0  0  0  0
 13 14  2  0  0  0  0
 13 19  1  0  0  0  0
 14 15  1  0  0  0  0
 15 16  2  0  0  0  0
 15 17  1  0  0  0  0
 17 18  2  0  0  0  0
 18 19  1  0  0  0  0
 19 20  2  0  0  0  0
 20 21  1  0  0  0  0
 20 22  1  0  0  0  0
 22 23  1  0  0  0  0
 22 24  1  0  0  0  0
 23 24  1  0  0  0  0
 25 26  2  0  0  0  0
 25 30  1  0  0  0  0
 26 27  1  0  0  0  0
 27 28  2  0  0  0  0
 28 29  1  0  0  0  0
 29 30  2  0  0  0  0
 29 34  1  0  0  0  0
 30 31  1  0  0  0  0
 31 32  2  0  0  0  0
 32 33  1  0  0  0  0
 32 39  1  0  0  0  0
 33 34  2  0  0  0  0
 33 35  1  0  0  0  0
 36 35  1  6  0  0  0
 36 37  1  0  0  0  0
 36 41  1  0  0  0  0
 37 38  2  0  0  0  0
 37 39  1  0  0  0  0
 39 40  2  0  0  0  0
 41 42  1  1  0  0  0
 41 43  1  0  0  0  0
 41 44  1  0  0  0  0
 43 44  1  0  0  0  0
 44 45  2  0  0  0  0
 46 47  2  0  0  0  0
 46 48  1  0  0  0  0
 48 49  2  0  0  0  0
 48 50  1  0  0  0  0
 50 51  2  0  0  0  0
M  END
$$$$