
 OpenBabel11212021193D

 53 61  0  0  1  0  0  0  0  0999 V2000
    1.3444   -2.3403   -4.4338 O   0  0  0  0  0  0  0  0  0  0  0  0
    1.9650   -1.4008   -3.6473 C   0  0  0  0  0  0  0  0  0  0  0  0
    2.4115   -1.6642   -2.4123 C   0  0  0  0  0  0  0  0  0  0  0  0
    2.2207   -2.9191   -1.8535 O   0  0  0  0  0  0  0  0  0  0  0  0
    3.1521   -3.2897   -0.8444 C   0  0  2  0  0  0  0  0  0  0  0  0
    2.8674   -4.6016   -0.3280 O   0  0  0  0  0  0  0  0  0  0  0  0
    2.9493   -5.6941   -1.1820 C   0  0  0  0  0  0  0  0  0  0  0  0
    2.5960   -6.9368   -0.7738 C   0  0  0  0  0  0  0  0  0  0  0  0
    2.6986   -8.0419   -1.6383 O   0  0  0  0  0  0  0  0  0  0  0  0
    3.3867   -7.9327   -2.8505 C   0  0  0  0  0  0  0  0  0  0  0  0
    3.7823   -6.7335   -3.3053 C   0  0  0  0  0  0  0  0  0  0  0  0
    3.4992   -5.4727   -2.5640 C   0  0  0  0  0  0  0  0  0  0  0  0
    4.5656   -6.5624   -4.5723 C   0  0  3  0  0  0  0  0  0  0  0  0
    5.8207   -6.0062   -4.2023 O   0  0  0  0  0  0  0  0  0  0  0  0
    6.7155   -5.8304   -5.1929 C   0  0  0  0  0  0  0  0  0  0  0  0
    7.7006   -5.0336   -5.0393 N   0  0  0  0  0  0  0  0  0  0  0  0
    6.5334   -6.5122   -6.3360 O   0  0  0  0  0  0  0  0  0  0  0  0
    5.6864   -7.6682   -6.4435 C   0  0  0  0  0  0  0  0  0  0  0  0
    4.8267   -7.8614   -5.2366 C   0  0  0  0  0  0  0  0  0  0  0  0
    4.3789   -9.0401   -4.7457 C   0  0  0  0  0  0  0  0  0  0  0  0
    3.6530   -9.0846   -3.5606 O   0  3  0  0  0  0  0  0  0  0  0  0
    4.6440  -10.3484   -5.3868 C   0  0  0  0  0  0  0  0  0  0  0  0
    5.7817  -11.1339   -5.0165 O   0  0  0  0  0  0  0  0  0  0  0  0
    4.4576  -11.5679   -4.6482 O   0  0  0  0  0  0  0  0  0  0  0  0
    2.0653   -7.2419    0.6028 C   0  0  0  0  0  0  0  0  0  0  0  0
    1.3523   -6.2522    1.2829 C   0  0  0  0  0  0  0  0  0  0  0  0
    0.8652   -6.4521    2.5058 N   0  3  0  0  0  0  0  0  0  0  0  0
    0.2211   -5.4432    3.1235 F   0  0  0  0  0  0  0  0  0  0  0  0
    0.9715   -7.6032    3.1252 N   0  0  0  0  0  0  0  0  0  0  0  0
    1.6127   -8.6250    2.5500 C   0  0  0  0  0  0  0  0  0  0  0  0
    2.2129   -8.4870    1.2765 C   0  0  0  0  0  0  0  0  0  0  0  0
    2.9256   -9.6016    0.7710 C   0  0  0  0  0  0  0  0  0  0  0  0
    2.9806  -10.8236    1.4515 C   0  0  0  0  0  0  0  0  0  0  0  0
    3.6892  -11.9553    0.8483 C   0  0  0  0  0  0  0  0  0  0  0  0
    4.2910  -11.8085   -0.2063 O   0  0  0  0  0  0  0  0  0  0  0  0
    3.5852  -13.2832    1.5648 C   0  0  0  0  0  0  0  0  0  0  0  0
    4.3758  -14.1777    1.3111 O   0  0  0  0  0  0  0  0  0  0  0  0
    2.4356  -13.3736    2.5452 C   0  0  1  0  0  0  0  0  0  0  0  0
    2.2827  -12.1719    3.3252 O   0  0  0  0  0  0  0  0  0  0  0  0
    2.3406  -10.9774    2.6636 C   0  0  0  0  0  0  0  0  0  0  0  0
    1.6894   -9.8641    3.2154 C   0  0  0  0  0  0  0  0  0  0  0  0
    0.8107  -10.0602    4.9049 Br  0  0  0  0  0  0  0  0  0  0  0  0
    1.1481  -13.8273    1.8911 C   0  0  1  0  0  0  0  0  0  0  0  0
    1.1899  -15.0995    1.2196 O   0  0  0  0  0  0  0  0  0  0  0  0
   -0.0535  -13.5773    2.6428 O   0  0  0  0  0  0  0  0  0  0  0  0
    0.0777  -12.9425    1.4785 C   0  0  0  0  0  0  0  0  0  0  0  0
    0.0605  -11.7599    1.1662 O   0  0  0  0  0  0  0  0  0  0  0  0
    3.0886   -2.2762    0.2725 C   0  0  0  0  0  0  0  0  0  0  0  0
    2.7715   -2.4963    1.4301 O   0  0  0  0  0  0  0  0  0  0  0  0
    3.5010   -0.9276   -0.2478 C   0  0  0  0  0  0  0  0  0  0  0  0
    4.2990   -0.2618    0.3863 O   0  0  0  0  0  0  0  0  0  0  0  0
    3.0666   -0.5501   -1.6548 C   0  0  0  0  0  0  0  0  0  0  0  0
    3.2776    0.5552   -2.1193 O   0  0  0  0  0  0  0  0  0  0  0  0
  1  2  1  0  0  0  0
  2  3  2  0  0  0  0
  3  4  1  0  0  0  0
  3 52  1  0  0  0  0
  4  5  1  0  0  0  0
  5  6  1  1  0  0  0
  5 48  1  0  0  0  0
  6  7  1  0  0  0  0
  7  8  2  0  0  0  0
  7 12  1  0  0  0  0
  8  9  1  0  0  0  0
  8 25  1  0  0  0  0
  9 10  1  0  0  0  0
 10 11  2  0  0  0  0
 10 21  1  0  0  0  0
 11 12  1  0  0  0  0
 11 13  1  0  0  0  0
 13 14  1  0  0  0  0
 13 19  1  0  0  0  0
 14 15  1  0  0  0  0
 15 16  2  0  0  0  0
 15 17  1  0  0  0  0
 17 18  1  0  0  0  0
 18 19  1  0  0  0  0
 19 20  2  0  0  0  0
 20 21  1  0  0  0  0
 20 22  1  0  0  0  0
 22 23  1  0  0  0  0
 22 24  1  0  0  0  0
 23 24  1  0  0  0  0
 25 26  2  0  0  0  0
 25 31  1  0  0  0  0
 26 27  1  0  0  0  0
 27 28  1  0  0  0  0
 27 29  2  0  0  0  0
 29 30  1  0  0  0  0
 30 31  2  0  0  0  0
 30 41  1  0  0  0  0
 31 32  1  0  0  0  0
 32 33  2  0  0  0  0
 33 34  1  0  0  0  0
 33 40  1  0  0  0  0
 34 35  2  0  0  0  0
 34 36  1  0  0  0  0
 36 37  2  0  0  0  0
 38 36  1  6  0  0  0
 38 39  1  0  0  0  0
 38 43  1  0  0  0  0
 39 40  1  0  0  0  0
 40 41  2  0  0  0  0
 41 42  1  0  0  0  0
 43 44  1  6  0  0  0
 43 45  1  0  0  0  0
 43 46  1  0  0  0  0
 45 46  1  0  0  0  0
 46 47  2  0  0  0  0
 48 49  2  0  0  0  0
 48 50  1  0  0  0  0
 50 51  2  0  0  0  0
 50 52  1  0  0  0  0
 52 53  2  0  0  0  0
M  CHG  2  21   1  27   1
M  END
$$$$