
 OpenBabel11272002243D

 54 62  0  0  1  0  0  0  0  0999 V2000
    2.1329    7.0797   -4.6095 O   0  0  0  0  0  0  0  0  0  0  0  0
    2.2555    5.7505   -4.9435 C   0  0  0  0  0  0  0  0  0  0  0  0
    2.6749    4.8093   -4.0871 C   0  0  0  0  0  0  0  0  0  0  0  0
    3.1156    5.1421   -2.8269 O   0  0  0  0  0  0  0  0  0  0  0  0
    2.7090    4.2540   -1.7843 C   0  0  2  0  0  0  0  0  0  0  0  0
    3.1146    4.7554   -0.4944 O   0  0  0  0  0  0  0  0  0  0  0  0
    3.0092    6.1227   -0.2578 C   0  0  0  0  0  0  0  0  0  0  0  0
    3.8623    6.7570    0.5772 C   0  0  0  0  0  0  0  0  0  0  0  0
    3.8183    8.1337    0.8168 O   0  0  0  0  0  0  0  0  0  0  0  0
    2.8780    8.9174    0.1504 C   0  0  0  0  0  0  0  0  0  0  0  0
    1.9480    8.3610   -0.6486 C   0  0  0  0  0  0  0  0  0  0  0  0
    1.8882    6.8877   -0.9069 C   0  0  0  0  0  0  0  0  0  0  0  0
    0.9567    9.1787   -1.4198 C   0  0  3  0  0  0  0  0  0  0  0  0
   -0.3436    8.8286   -1.0040 O   0  0  0  0  0  0  0  0  0  0  0  0
   -1.3691    9.5272   -1.5671 C   0  0  0  0  0  0  0  0  0  0  0  0
   -2.5072    9.0869   -1.5515 O   0  0  0  0  0  0  0  0  0  0  0  0
   -1.0604   10.7248   -2.1344 O   0  0  0  0  0  0  0  0  0  0  0  0
    0.1008   11.3569   -1.8868 C   0  0  0  0  0  0  0  0  0  0  0  0
    0.3498   12.4820   -2.2925 O   0  0  0  0  0  0  0  0  0  0  0  0
    1.1055   10.6077   -1.1387 C   0  0  0  0  0  0  0  0  0  0  0  0
    2.0496   11.1343   -0.3286 C   0  0  0  0  0  0  0  0  0  0  0  0
    2.9425   10.2855    0.3256 O   0  3  0  0  0  0  0  0  0  0  0  0
    2.2151   12.5909   -0.0837 C   0  0  0  0  0  0  0  0  0  0  0  0
    3.2478   13.0817    0.7886 O   0  0  0  0  0  0  0  0  0  0  0  0
    3.3343   13.3013   -0.6320 O   0  0  0  0  0  0  0  0  0  0  0  0
    4.9158    6.0394    1.3295 C   0  0  0  0  0  0  0  0  0  0  0  0
    4.5421    5.6657    2.5749 N   0  0  0  0  0  0  0  0  0  0  0  0
    5.4268    4.9383    3.2891 C   0  0  0  0  0  0  0  0  0  0  0  0
    5.0647    4.5695    4.5252 F   0  0  0  0  0  0  0  0  0  0  0  0
    6.6792    4.5728    2.8360 C   0  0  0  0  0  0  0  0  0  0  0  0
    7.0826    4.9942    1.5653 C   0  0  0  0  0  0  0  0  0  0  0  0
    6.1943    5.7704    0.7875 C   0  0  0  0  0  0  0  0  0  0  0  0
    6.6517    6.2512   -0.4568 C   0  0  0  0  0  0  0  0  0  0  0  0
    7.9455    5.9603   -0.9126 C   0  0  0  0  0  0  0  0  0  0  0  0
    8.4340    6.6009   -2.1349 C   0  0  0  0  0  0  0  0  0  0  0  0
    7.7102    7.3057   -2.8209 O   0  0  0  0  0  0  0  0  0  0  0  0
    9.8931    6.3980   -2.4538 C   0  0  0  0  0  0  0  0  0  0  0  0
   10.5107    7.2369   -3.0917 O   0  0  0  0  0  0  0  0  0  0  0  0
   10.4576    5.1041   -1.9248 C   0  0  1  0  0  0  0  0  0  0  0  0
   10.0500    4.7796   -0.5875 O   0  0  0  0  0  0  0  0  0  0  0  0
    8.7946    5.1386   -0.1889 C   0  0  0  0  0  0  0  0  0  0  0  0
    8.3559    4.6726    1.0525 C   0  0  0  0  0  0  0  0  0  0  0  0
    9.1844    3.9156    1.7905 F   0  0  0  0  0  0  0  0  0  0  0  0
   10.1663    3.9637   -2.8560 C   0  0  1  0  0  0  0  0  0  0  0  0
    8.7773    3.6856   -3.1397 O   0  0  0  0  0  0  0  0  0  0  0  0
   11.0146    3.8502   -3.9996 O   0  0  0  0  0  0  0  0  0  0  0  0
   11.1535    2.9019   -3.0480 C   0  0  0  0  0  0  0  0  0  0  0  0
   12.1275    2.5797   -2.4151 O   0  0  0  0  0  0  0  0  0  0  0  0
    3.3597    2.9036   -2.0440 C   0  0  0  0  0  0  0  0  0  0  0  0
    3.9919    2.2462   -1.2308 O   0  0  0  0  0  0  0  0  0  0  0  0
    3.1798    2.4218   -3.4690 C   0  0  0  0  0  0  0  0  0  0  0  0
    3.3831    1.2514   -3.7497 O   0  0  0  0  0  0  0  0  0  0  0  0
    2.7469    3.3979   -4.5479 C   0  0  0  0  0  0  0  0  0  0  0  0
    2.4747    3.0428   -5.6814 O   0  0  0  0  0  0  0  0  0  0  0  0
  1  2  1  0  0  0  0
  2  3  2  0  0  0  0
  3  4  1  0  0  0  0
  3 53  1  0  0  0  0
  4  5  1  0  0  0  0
  5  6  1  1  0  0  0
  5 49  1  0  0  0  0
  6  7  1  0  0  0  0
  7  8  2  0  0  0  0
  7 12  1  0  0  0  0
  8  9  1  0  0  0  0
  8 26  1  0  0  0  0
  9 10  1  0  0  0  0
 10 11  2  0  0  0  0
 10 22  1  0  0  0  0
 11 12  1  0  0  0  0
 11 13  1  0  0  0  0
 13 14  1  0  0  0  0
 13 20  1  0  0  0  0
 14 15  1  0  0  0  0
 15 16  2  0  0  0  0
 15 17  1  0  0  0  0
 17 18  1  0  0  0  0
 18 19  2  0  0  0  0
 18 20  1  0  0  0  0
 20 21  2  0  0  0  0
 21 22  1  0  0  0  0
 21 23  1  0  0  0  0
 23 24  1  0  0  0  0
 23 25  1  0  0  0  0
 24 25  1  0  0  0  0
 26 27  2  0  0  0  0
 26 32  1  0  0  0  0
 27 28  1  0  0  0  0
 28 29  1  0  0  0  0
 28 30  2  0  0  0  0
 30 31  1  0  0  0  0
 31 32  2  0  0  0  0
 31 42  1  0  0  0  0
 32 33  1  0  0  0  0
 33 34  2  0  0  0  0
 34 35  1  0  0  0  0
 34 41  1  0  0  0  0
 35 36  2  0  0  0  0
 35 37  1  0  0  0  0
 37 38  2  0  0  0  0
 39 37  1  6  0  0  0
 39 40  1  0  0  0  0
 39 44  1  0  0  0  0
 40 41  1  0  0  0  0
 41 42  2  0  0  0  0
 42 43  1  0  0  0  0
 44 45  1  6  0  0  0
 44 46  1  0  0  0  0
 44 47  1  0  0  0  0
 46 47  1  0  0  0  0
 47 48  2  0  0  0  0
 49 50  2  0  0  0  0
 49 51  1  0  0  0  0
 51 52  2  0  0  0  0
 51 53  1  0  0  0  0
 53 54  2  0  0  0  0
M  CHG  1  22   1
M  END
$$$$