
 OpenBabel12062000573D

 54 62  0  0  1  0  0  0  0  0999 V2000
   -1.4363    3.6087   -2.5824 O   0  0  0  0  0  0  0  0  0  0  0  0
   -0.4517    4.0262   -3.4376 C   0  0  0  0  0  0  0  0  0  0  0  0
    0.7748    4.3540   -3.0163 C   0  0  0  0  0  0  0  0  0  0  0  0
    1.0914    4.3397   -1.6661 O   0  0  0  0  0  0  0  0  0  0  0  0
    2.4250    4.0201   -1.3057 C   0  0  2  0  0  0  0  0  0  0  0  0
    2.8257    4.5976   -0.0141 O   0  0  0  0  0  0  0  0  0  0  0  0
    2.8531    5.9830    0.1415 C   0  0  0  0  0  0  0  0  0  0  0  0
    3.7389    6.6204    0.9530 C   0  0  0  0  0  0  0  0  0  0  0  0
    3.7212    8.0272    1.0845 O   0  0  0  0  0  0  0  0  0  0  0  0
    2.7272    8.8004    0.4772 C   0  0  0  0  0  0  0  0  0  0  0  0
    1.7991    8.2247   -0.3004 C   0  0  0  0  0  0  0  0  0  0  0  0
    1.7645    6.7603   -0.5459 C   0  0  0  0  0  0  0  0  0  0  0  0
    0.7447    9.0041   -1.0206 C   0  0  3  0  0  0  0  0  0  0  0  0
   -0.5080    8.5911   -0.5318 O   0  0  0  0  0  0  0  0  0  0  0  0
   -1.6090    9.1900   -1.0991 C   0  0  0  0  0  0  0  0  0  0  0  0
   -2.7226    8.7389   -0.9804 O   0  0  0  0  0  0  0  0  0  0  0  0
   -1.3379   10.3015   -1.8313 O   0  0  0  0  0  0  0  0  0  0  0  0
   -0.2609   11.1552   -1.4587 C   0  0  3  0  0  0  0  0  0  0  0  0
    0.8299   10.4508   -0.7296 C   0  0  0  0  0  0  0  0  0  0  0  0
    1.7584   10.9820    0.0934 C   0  0  0  0  0  0  0  0  0  0  0  0
    2.7208   10.1642    0.6900 O   0  3  0  0  0  0  0  0  0  0  0  0
    1.8228   12.4153    0.4386 C   0  0  3  0  0  0  0  0  0  0  0  0
    2.8973   12.8408    1.2691 N   0  0  0  0  0  0  0  0  0  0  0  0
    1.7880   12.7335    1.8210 N   0  0  0  0  0  0  0  0  0  0  0  0
    0.3726   11.6459   -2.6234 O   0  0  0  0  0  0  0  0  0  0  0  0
    4.8207    5.9421    1.7625 C   0  0  0  0  0  0  0  0  0  0  0  0
    5.3945    4.7633    1.2855 C   0  0  0  0  0  0  0  0  0  0  0  0
    6.3709    4.1362    1.9473 N   0  3  0  0  0  0  0  0  0  0  0  0
    6.8530    2.9794    1.4523 F   0  0  0  0  0  0  0  0  0  0  0  0
    6.9087    4.6203    3.0468 N   0  0  0  0  0  0  0  0  0  0  0  0
    6.4656    5.7747    3.5467 C   0  0  0  0  0  0  0  0  0  0  0  0
    5.3777    6.4645    2.9692 C   0  0  0  0  0  0  0  0  0  0  0  0
    4.9379    7.6306    3.6436 C   0  0  0  0  0  0  0  0  0  0  0  0
    5.6388    8.1776    4.7291 C   0  0  0  0  0  0  0  0  0  0  0  0
    5.1700    9.4281    5.3311 C   0  0  0  0  0  0  0  0  0  0  0  0
    4.2133   10.0188    4.8516 O   0  0  0  0  0  0  0  0  0  0  0  0
    5.9499    9.9288    6.5249 C   0  0  0  0  0  0  0  0  0  0  0  0
    5.4251   10.6626    7.3458 O   0  0  0  0  0  0  0  0  0  0  0  0
    7.3896    9.4600    6.5425 C   0  0  1  0  0  0  0  0  0  0  0  0
    7.5649    8.0714    6.1997 O   0  0  0  0  0  0  0  0  0  0  0  0
    6.7714    7.5601    5.2134 C   0  0  0  0  0  0  0  0  0  0  0  0
    7.1240    6.3301    4.6532 C   0  0  0  0  0  0  0  0  0  0  0  0
    8.1695    5.6646    5.1709 F   0  0  0  0  0  0  0  0  0  0  0  0
    8.2396   10.3393    5.6607 C   0  0  1  0  0  0  0  0  0  0  0  0
    7.8798   10.4028    4.2613 O   0  0  0  0  0  0  0  0  0  0  0  0
    8.5735   11.6052    6.2394 O   0  0  0  0  0  0  0  0  0  0  0  0
    9.6573   10.7011    6.0235 C   0  0  3  0  0  0  0  0  0  0  0  0
   10.5135   11.0017    4.9780 F   0  0  0  0  0  0  0  0  0  0  0  0
    3.5487    4.3098   -2.2932 C   0  0  0  0  0  0  0  0  0  0  0  0
    4.7279    4.0394   -2.1092 O   0  0  0  0  0  0  0  0  0  0  0  0
    3.0897    5.1531   -3.4411 C   0  0  0  0  0  0  0  0  0  0  0  0
    3.6888    6.1882   -3.6889 O   0  0  0  0  0  0  0  0  0  0  0  0
    1.7395    4.8545   -4.0354 C   0  0  0  0  0  0  0  0  0  0  0  0
    1.4955    5.0609   -5.2079 O   0  0  0  0  0  0  0  0  0  0  0  0
  1  2  1  0  0  0  0
  2  3  2  0  0  0  0
  3  4  1  0  0  0  0
  3 53  1  0  0  0  0
  4  5  1  0  0  0  0
  5  6  1  1  0  0  0
  5 49  1  0  0  0  0
  6  7  1  0  0  0  0
  7  8  2  0  0  0  0
  7 12  1  0  0  0  0
  8  9  1  0  0  0  0
  8 26  1  0  0  0  0
  9 10  1  0  0  0  0
 10 11  2  0  0  0  0
 10 21  1  0  0  0  0
 11 12  1  0  0  0  0
 11 13  1  0  0  0  0
 13 14  1  0  0  0  0
 13 19  1  0  0  0  0
 14 15  1  0  0  0  0
 15 16  2  0  0  0  0
 15 17  1  0  0  0  0
 17 18  1  0  0  0  0
 18 19  1  0  0  0  0
 18 25  1  0  0  0  0
 19 20  2  0  0  0  0
 20 21  1  0  0  0  0
 20 22  1  0  0  0  0
 22 23  1  0  0  0  0
 22 24  1  0  0  0  0
 23 24  2  0  0  0  0
 26 27  2  0  0  0  0
 26 32  1  0  0  0  0
 27 28  1  0  0  0  0
 28 29  1  0  0  0  0
 28 30  2  0  0  0  0
 30 31  1  0  0  0  0
 31 32  2  0  0  0  0
 31 42  1  0  0  0  0
 32 33  1  0  0  0  0
 33 34  2  0  0  0  0
 34 35  1  0  0  0  0
 34 41  1  0  0  0  0
 35 36  2  0  0  0  0
 35 37  1  0  0  0  0
 37 38  2  0  0  0  0
 39 37  1  6  0  0  0
 39 40  1  0  0  0  0
 39 44  1  0  0  0  0
 40 41  1  0  0  0  0
 41 42  2  0  0  0  0
 42 43  1  0  0  0  0
 44 45  1  6  0  0  0
 44 46  1  0  0  0  0
 44 47  1  0  0  0  0
 46 47  1  0  0  0  0
 47 48  1  0  0  0  0
 49 50  2  0  0  0  0
 49 51  1  0  0  0  0
 51 52  2  0  0  0  0
 51 53  1  0  0  0  0
 53 54  2  0  0  0  0
M  CHG  2  21   1  28   1
M  END
$$$$