
 OpenBabel09262021523D

 53 61  0  0  1  0  0  0  0  0999 V2000
    2.9773    2.5341    5.9638 O   0  0  0  0  0  0  0  0  0  0  0  0
    3.6514    1.6986    5.1112 C   0  0  0  0  0  0  0  0  0  0  0  0
    3.5101    1.7642    3.7826 C   0  0  0  0  0  0  0  0  0  0  0  0
    2.6309    2.6695    3.2166 O   0  0  0  0  0  0  0  0  0  0  0  0
    3.0455    3.1797    1.9515 C   0  0  2  0  0  0  0  0  0  0  0  0
    2.1320    4.1689    1.4760 O   0  0  0  0  0  0  0  0  0  0  0  0
    1.9698    5.3035    2.2615 C   0  0  0  0  0  0  0  0  0  0  0  0
    0.7948    5.9671    2.2713 C   0  0  0  0  0  0  0  0  0  0  0  0
    0.5795    7.1422    2.9798 O   0  0  0  0  0  0  0  0  0  0  0  0
    1.6539    7.7505    3.6100 C   0  0  0  0  0  0  0  0  0  0  0  0
    2.8683    7.1778    3.6422 C   0  0  0  0  0  0  0  0  0  0  0  0
    3.1546    5.8518    3.0210 C   0  0  0  0  0  0  0  0  0  0  0  0
    3.9723    7.9188    4.3135 C   0  0  0  0  0  0  0  0  0  0  0  0
    5.1678    7.4291    4.3586 N   0  0  0  0  0  0  0  0  0  0  0  0
    6.1685    8.1528    4.9788 C   0  0  0  0  0  0  0  0  0  0  0  0
    7.2941    7.6718    5.0034 O   0  0  0  0  0  0  0  0  0  0  0  0
    5.9670    9.3873    5.5663 N   0  0  0  0  0  0  0  0  0  0  0  0
    4.7843    9.8964    5.5418 C   0  0  0  0  0  0  0  0  0  0  0  0
    3.6455    9.2325    4.9109 C   0  0  0  0  0  0  0  0  0  0  0  0
    2.3907    9.7172    4.8341 C   0  0  0  0  0  0  0  0  0  0  0  0
    1.4189    8.9727    4.1855 N   0  0  0  0  0  0  0  0  0  0  0  0
    1.9523   11.0160    5.3914 C   0  0  0  0  0  0  0  0  0  0  0  0
    0.6163   11.2191    5.8832 O   0  0  0  0  0  0  0  0  0  0  0  0
    1.7293   11.1960    6.7979 O   0  0  0  0  0  0  0  0  0  0  0  0
   -0.3628    5.5218    1.4811 C   0  0  0  0  0  0  0  0  0  0  0  0
   -0.4124    6.0563    0.2434 N   0  0  0  0  0  0  0  0  0  0  0  0
   -1.4040    5.6248   -0.5319 C   0  0  0  0  0  0  0  0  0  0  0  0
   -2.3487    4.7435   -0.1788 N   0  0  0  0  0  0  0  0  0  0  0  0
   -2.2999    4.2234    1.0556 C   0  0  0  0  0  0  0  0  0  0  0  0
   -1.3018    4.5976    1.9685 C   0  0  0  0  0  0  0  0  0  0  0  0
   -1.3004    4.0504    3.2734 C   0  0  0  0  0  0  0  0  0  0  0  0
   -2.2712    3.1230    3.6520 C   0  0  0  0  0  0  0  0  0  0  0  0
   -2.2929    2.6059    5.0248 C   0  0  0  0  0  0  0  0  0  0  0  0
   -1.6068    3.1023    5.9052 O   0  0  0  0  0  0  0  0  0  0  0  0
   -3.2244    1.4549    5.3177 C   0  0  0  0  0  0  0  0  0  0  0  0
   -3.3075    0.9864    6.4455 O   0  0  0  0  0  0  0  0  0  0  0  0
   -3.9663    0.9119    4.1188 C   0  0  1  0  0  0  0  0  0  0  0  0
   -4.2295    1.8268    3.0547 O   0  0  0  0  0  0  0  0  0  0  0  0
   -3.2409    2.7203    2.7449 C   0  0  0  0  0  0  0  0  0  0  0  0
   -3.2666    3.2830    1.4518 C   0  0  0  0  0  0  0  0  0  0  0  0
   -4.3032    2.8305    0.4503 C   0  0  0  0  0  0  0  0  0  0  0  0
   -3.7144    1.4044   -0.4342 Cl  0  0  0  0  0  0  0  0  0  0  0  0
   -3.2967   -0.3138    3.5875 C   0  0  1  0  0  0  0  0  0  0  0  0
   -1.9213   -0.1642    3.1585 O   0  0  0  0  0  0  0  0  0  0  0  0
   -3.6068   -1.5158    4.2935 O   0  0  0  0  0  0  0  0  0  0  0  0
   -4.0192   -1.4472    3.0135 C   0  0  0  0  0  0  0  0  0  0  0  0
   -3.7417   -2.1624    2.0759 O   0  0  0  0  0  0  0  0  0  0  0  0
    3.1068    2.0268    0.9662 C   0  0  0  0  0  0  0  0  0  0  0  0
    2.5269    1.9387   -0.1047 O   0  0  0  0  0  0  0  0  0  0  0  0
    4.0152    0.9286    1.4542 C   0  0  0  0  0  0  0  0  0  0  0  0
    4.5536    0.1761    0.6580 O   0  0  0  0  0  0  0  0  0  0  0  0
    4.2892    0.8109    2.9410 C   0  0  0  0  0  0  0  0  0  0  0  0
    5.0998    0.0138    3.3834 O   0  0  0  0  0  0  0  0  0  0  0  0
  1  2  1  0  0  0  0
  2  3  2  0  0  0  0
  3  4  1  0  0  0  0
  3 52  1  0  0  0  0
  4  5  1  0  0  0  0
  5  6  1  6  0  0  0
  5 48  1  0  0  0  0
  6  7  1  0  0  0  0
  7  8  2  0  0  0  0
  7 12  1  0  0  0  0
  8  9  1  0  0  0  0
  8 25  1  0  0  0  0
  9 10  1  0  0  0  0
 10 11  2  0  0  0  0
 10 21  1  0  0  0  0
 11 12  1  0  0  0  0
 11 13  1  0  0  0  0
 13 14  2  0  0  0  0
 13 19  1  0  0  0  0
 14 15  1  0  0  0  0
 15 16  2  0  0  0  0
 15 17  1  0  0  0  0
 17 18  2  0  0  0  0
 18 19  1  0  0  0  0
 19 20  2  0  0  0  0
 20 21  1  0  0  0  0
 20 22  1  0  0  0  0
 22 23  1  0  0  0  0
 22 24  1  0  0  0  0
 23 24  1  0  0  0  0
 25 26  2  0  0  0  0
 25 30  1  0  0  0  0
 26 27  1  0  0  0  0
 27 28  2  0  0  0  0
 28 29  1  0  0  0  0
 29 30  2  0  0  0  0
 29 40  1  0  0  0  0
 30 31  1  0  0  0  0
 31 32  2  0  0  0  0
 32 33  1  0  0  0  0
 32 39  1  0  0  0  0
 33 34  2  0  0  0  0
 33 35  1  0  0  0  0
 35 36  2  0  0  0  0
 37 35  1  1  0  0  0
 37 38  1  0  0  0  0
 37 43  1  0  0  0  0
 38 39  1  0  0  0  0
 39 40  2  0  0  0  0
 40 41  1  0  0  0  0
 41 42  1  0  0  0  0
 43 44  1  6  0  0  0
 43 45  1  0  0  0  0
 43 46  1  0  0  0  0
 45 46  1  0  0  0  0
 46 47  2  0  0  0  0
 48 49  2  0  0  0  0
 48 50  1  0  0  0  0
 50 51  2  0  0  0  0
 50 52  1  0  0  0  0
 52 53  2  0  0  0  0
M  END
$$$$