
 OpenBabel11232001233D

 52 61  0  0  1  0  0  0  0  0999 V2000
   -3.0658  -16.7976   10.2172 O   0  0  0  0  0  0  0  0  0  0  0  0
   -4.0345  -16.2024   10.9837 C   0  0  0  0  0  0  0  0  0  0  0  0
   -4.6593  -15.0734   10.6221 C   0  0  0  0  0  0  0  0  0  0  0  0
   -4.3512  -14.4422    9.4269 O   0  0  0  0  0  0  0  0  0  0  0  0
   -5.2592  -13.4245    9.0111 C   0  0  2  0  0  0  0  0  0  0  0  0
   -4.7878  -12.7967    7.8068 O   0  0  0  0  0  0  0  0  0  0  0  0
   -5.1756  -13.3156    6.5770 C   0  0  0  0  0  0  0  0  0  0  0  0
   -5.2517  -12.5187    5.4856 C   0  0  0  0  0  0  0  0  0  0  0  0
   -5.5555  -13.0171    4.2201 O   0  0  0  0  0  0  0  0  0  0  0  0
   -5.8992  -14.3443    4.0494 C   0  0  0  0  0  0  0  0  0  0  0  0
   -5.8875  -15.2172    5.0733 C   0  0  0  0  0  0  0  0  0  0  0  0
   -5.4302  -14.8056    6.4537 C   0  0  0  0  0  0  0  0  0  0  0  0
   -6.3532  -16.6389    4.8892 C   0  0  3  0  0  0  0  0  0  0  0  0
   -7.4795  -16.8381    5.7305 O   0  0  0  0  0  0  0  0  0  0  0  0
   -8.0153  -18.0908    5.7105 C   0  0  0  0  0  0  0  0  0  0  0  0
   -8.7677  -18.4898    6.5815 O   0  0  0  0  0  0  0  0  0  0  0  0
   -7.6031  -18.8605    4.6704 O   0  0  0  0  0  0  0  0  0  0  0  0
   -7.4953  -18.2265    3.4058 C   0  0  3  0  0  0  0  0  0  0  0  0
   -6.8469  -16.8892    3.5083 C   0  0  0  0  0  0  0  0  0  0  0  0
   -6.7744  -15.9711    2.5192 C   0  0  0  0  0  0  0  0  0  0  0  0
   -6.2619  -14.7145    2.7784 O   0  3  0  0  0  0  0  0  0  0  0  0
   -7.2612  -16.1989    1.1377 C   0  0  0  0  0  0  0  0  0  0  0  0
   -8.5839  -15.8093    0.7474 O   0  0  0  0  0  0  0  0  0  0  0  0
   -7.4447  -15.0894    0.2389 O   0  0  0  0  0  0  0  0  0  0  0  0
   -6.6458  -18.9954    2.5783 O   0  0  0  0  0  0  0  0  0  0  0  0
   -4.9633  -11.0614    5.4453 C   0  0  0  0  0  0  0  0  0  0  0  0
   -4.0412  -10.6249    4.5019 C   0  0  0  0  0  0  0  0  0  0  0  0
   -3.7277   -9.3339    4.3101 N   0  0  0  0  0  0  0  0  0  0  0  0
   -4.3085   -8.3869    5.0941 N   0  0  0  0  0  0  0  0  0  0  0  0
   -5.1907   -8.7207    6.0436 C   0  0  0  0  0  0  0  0  0  0  0  0
   -5.5788  -10.0670    6.2427 C   0  0  0  0  0  0  0  0  0  0  0  0
   -6.5543  -10.3363    7.2249 C   0  0  0  0  0  0  0  0  0  0  0  0
   -7.0497   -9.3219    8.0408 C   0  0  0  0  0  0  0  0  0  0  0  0
   -6.6689   -8.0035    7.8283 C   0  0  0  0  0  0  0  0  0  0  0  0
   -5.7427   -7.7135    6.8303 C   0  0  0  0  0  0  0  0  0  0  0  0
   -7.1824   -6.9514    8.5487 O   0  0  0  0  0  0  0  0  0  0  0  0
   -8.4522   -7.2609    9.1733 C   0  0  1  0  0  0  0  0  0  0  0  0
   -8.4855   -8.4935    9.9695 C   0  0  0  0  0  0  0  0  0  0  0  0
   -8.9347   -8.6034   11.0940 O   0  0  0  0  0  0  0  0  0  0  0  0
   -7.9760   -9.6567    9.1369 C   0  0  0  0  0  0  0  0  0  0  0  0
   -8.3603  -10.8043    9.3109 O   0  0  0  0  0  0  0  0  0  0  0  0
   -9.2449   -6.1748    9.5855 O   0  0  0  0  0  0  0  0  0  0  0  0
   -9.7247   -6.9494    8.4448 C   0  0  1  0  0  0  0  0  0  0  0  0
   -9.3340   -6.5222    7.0870 O   0  0  0  0  0  0  0  0  0  0  0  0
  -10.4455   -6.0371    7.5958 C   0  0  0  0  0  0  0  0  0  0  0  0
  -11.5766   -6.0381    7.1639 O   0  0  0  0  0  0  0  0  0  0  0  0
   -5.4224  -12.3880   10.1147 C   0  0  0  0  0  0  0  0  0  0  0  0
   -5.2149  -11.1881   10.0312 O   0  0  0  0  0  0  0  0  0  0  0  0
   -5.9263  -13.0287   11.3858 C   0  0  0  0  0  0  0  0  0  0  0  0
   -6.5787  -12.3914   12.1906 O   0  0  0  0  0  0  0  0  0  0  0  0
   -5.6368  -14.5042   11.5966 C   0  0  0  0  0  0  0  0  0  0  0  0
   -6.1810  -15.1544   12.4722 O   0  0  0  0  0  0  0  0  0  0  0  0
  1  2  1  0  0  0  0
  2  3  2  0  0  0  0
  3  4  1  0  0  0  0
  3 51  1  0  0  0  0
  4  5  1  0  0  0  0
  5  6  1  6  0  0  0
  5 47  1  0  0  0  0
  6  7  1  0  0  0  0
  7  8  2  0  0  0  0
  7 12  1  0  0  0  0
  8  9  1  0  0  0  0
  8 26  1  0  0  0  0
  9 10  1  0  0  0  0
 10 11  2  0  0  0  0
 10 21  1  0  0  0  0
 11 12  1  0  0  0  0
 11 13  1  0  0  0  0
 13 14  1  0  0  0  0
 13 19  1  0  0  0  0
 14 15  1  0  0  0  0
 15 16  2  0  0  0  0
 15 17  1  0  0  0  0
 17 18  1  0  0  0  0
 18 19  1  0  0  0  0
 18 25  1  0  0  0  0
 19 20  2  0  0  0  0
 20 21  1  0  0  0  0
 20 22  1  0  0  0  0
 22 23  1  0  0  0  0
 22 24  1  0  0  0  0
 23 24  1  0  0  0  0
 26 27  2  0  0  0  0
 26 31  1  0  0  0  0
 27 28  1  0  0  0  0
 28 29  2  0  0  0  0
 29 30  1  0  0  0  0
 30 31  2  0  0  0  0
 30 35  1  0  0  0  0
 31 32  1  0  0  0  0
 32 33  2  0  0  0  0
 33 34  1  0  0  0  0
 33 40  1  0  0  0  0
 34 35  2  0  0  0  0
 34 36  1  0  0  0  0
 37 36  1  6  0  0  0
 37 38  1  0  0  0  0
 37 42  1  0  0  0  0
 37 43  1  0  0  0  0
 38 39  2  0  0  0  0
 38 40  1  0  0  0  0
 40 41  2  0  0  0  0
 43 42  1  1  0  0  0
 43 44  1  0  0  0  0
 43 45  1  0  0  0  0
 44 45  1  0  0  0  0
 45 46  2  0  0  0  0
 47 48  2  0  0  0  0
 47 49  1  0  0  0  0
 49 50  2  0  0  0  0
 49 51  1  0  0  0  0
 51 52  2  0  0  0  0
M  CHG  1  21   1
M  END
$$$$