
 OpenBabel11272001553D

 54 63  0  0  1  0  0  0  0  0999 V2000
   10.4792   -7.7409   -3.8693 F   0  0  0  0  0  0  0  0  0  0  0  0
    9.1716   -7.4468   -3.7665 C   0  0  0  0  0  0  0  0  0  0  0  0
    8.4672   -7.7805   -2.6856 C   0  0  0  0  0  0  0  0  0  0  0  0
    9.0470   -8.2843   -1.5283 O   0  0  0  0  0  0  0  0  0  0  0  0
    8.1862   -8.1587   -0.3793 C   0  0  2  0  0  0  0  0  0  0  0  0
    8.8452   -8.5364    0.8319 O   0  0  0  0  0  0  0  0  0  0  0  0
    9.9306   -7.8684    1.3565 C   0  0  0  0  0  0  0  0  0  0  0  0
   10.2542   -6.5502    1.2978 C   0  0  0  0  0  0  0  0  0  0  0  0
   11.4357   -6.0547    1.8506 O   0  0  0  0  0  0  0  0  0  0  0  0
   12.3516   -6.8983    2.4512 C   0  0  0  0  0  0  0  0  0  0  0  0
   12.1057   -8.2097    2.6332 C   0  0  0  0  0  0  0  0  0  0  0  0
   10.8175   -8.8252    2.1473 C   0  0  0  0  0  0  0  0  0  0  0  0
   13.1025   -9.1024    3.3465 C   0  0  3  0  0  0  0  0  0  0  0  0
   13.4488  -10.1854    2.5095 O   0  0  0  0  0  0  0  0  0  0  0  0
   14.3694  -11.0637    3.0045 C   0  0  0  0  0  0  0  0  0  0  0  0
   14.4280  -12.2116    2.5943 O   0  0  0  0  0  0  0  0  0  0  0  0
   15.2279  -10.5904    3.9462 O   0  0  0  0  0  0  0  0  0  0  0  0
   15.3838   -9.2766    4.1687 C   0  0  0  0  0  0  0  0  0  0  0  0
   16.3007   -8.8189    4.8355 O   0  0  0  0  0  0  0  0  0  0  0  0
   14.3665   -8.3886    3.6135 C   0  0  0  0  0  0  0  0  0  0  0  0
   14.5666   -7.0759    3.3669 C   0  0  0  0  0  0  0  0  0  0  0  0
   13.5295   -6.3189    2.8506 O   0  3  0  0  0  0  0  0  0  0  0  0
   15.8255   -6.3229    3.6054 C   0  0  0  0  0  0  0  0  0  0  0  0
   15.8908   -4.9190    3.2772 O   0  0  0  0  0  0  0  0  0  0  0  0
   15.9091   -5.3461    4.6511 O   0  0  0  0  0  0  0  0  0  0  0  0
    9.4224   -5.4353    0.7859 C   0  0  0  0  0  0  0  0  0  0  0  0
    8.4901   -5.0048    1.6661 N   0  0  0  0  0  0  0  0  0  0  0  0
    7.7126   -3.9605    1.3033 C   0  0  0  0  0  0  0  0  0  0  0  0
    6.7788   -3.5498    2.1697 F   0  0  0  0  0  0  0  0  0  0  0  0
    7.8007   -3.3204    0.0875 C   0  0  0  0  0  0  0  0  0  0  0  0
    8.7818   -3.7356   -0.8095 C   0  0  0  0  0  0  0  0  0  0  0  0
    9.6464   -4.8023   -0.4583 C   0  0  0  0  0  0  0  0  0  0  0  0
   10.6798   -5.1360   -1.3575 C   0  0  0  0  0  0  0  0  0  0  0  0
   10.8902   -4.3713   -2.5140 C   0  0  0  0  0  0  0  0  0  0  0  0
   10.0015   -3.3669   -2.8757 C   0  0  0  0  0  0  0  0  0  0  0  0
    8.9279   -3.0865   -2.0440 C   0  0  0  0  0  0  0  0  0  0  0  0
    8.0580   -2.1293   -2.3993 F   0  0  0  0  0  0  0  0  0  0  0  0
   10.1742   -2.5913   -3.9931 O   0  0  0  0  0  0  0  0  0  0  0  0
   11.5700   -2.3642   -4.2916 C   0  0  1  0  0  0  0  0  0  0  0  0
   12.3860   -3.5804   -4.4281 C   0  0  0  0  0  0  0  0  0  0  0  0
   13.2250   -3.7799   -5.2863 O   0  0  0  0  0  0  0  0  0  0  0  0
   12.1482   -4.5213   -3.2611 C   0  0  0  0  0  0  0  0  0  0  0  0
   13.0247   -5.2637   -2.8433 O   0  0  0  0  0  0  0  0  0  0  0  0
   11.8707   -1.2768   -5.1244 O   0  0  0  0  0  0  0  0  0  0  0  0
   12.2632   -1.1535   -3.7228 C   0  0  1  0  0  0  0  0  0  0  0  0
   11.3237   -0.5392   -2.7723 O   0  0  0  0  0  0  0  0  0  0  0  0
   12.1586    0.2412   -3.4040 C   0  0  0  0  0  0  0  0  0  0  0  0
   12.9750    1.0523   -2.9697 O   0  0  0  0  0  0  0  0  0  0  0  0
    6.9480   -9.0350   -0.6118 C   0  0  0  0  0  0  0  0  0  0  0  0
    6.4475   -9.8100    0.1866 O   0  0  0  0  0  0  0  0  0  0  0  0
    6.3434   -8.8102   -1.9851 C   0  0  0  0  0  0  0  0  0  0  0  0
    5.4412   -9.5000   -2.4230 O   0  0  0  0  0  0  0  0  0  0  0  0
    6.9965   -7.7633   -2.8597 C   0  0  0  0  0  0  0  0  0  0  0  0
    6.3885   -7.0217   -3.6057 O   0  0  0  0  0  0  0  0  0  0  0  0
  1  2  1  0  0  0  0
  2  3  2  0  0  0  0
  3  4  1  0  0  0  0
  3 53  1  0  0  0  0
  4  5  1  0  0  0  0
  5  6  1  1  0  0  0
  5 49  1  0  0  0  0
  6  7  1  0  0  0  0
  7  8  2  0  0  0  0
  7 12  1  0  0  0  0
  8  9  1  0  0  0  0
  8 26  1  0  0  0  0
  9 10  1  0  0  0  0
 10 11  2  0  0  0  0
 10 22  1  0  0  0  0
 11 12  1  0  0  0  0
 11 13  1  0  0  0  0
 13 14  1  0  0  0  0
 13 20  1  0  0  0  0
 14 15  1  0  0  0  0
 15 16  2  0  0  0  0
 15 17  1  0  0  0  0
 17 18  1  0  0  0  0
 18 19  2  0  0  0  0
 18 20  1  0  0  0  0
 20 21  2  0  0  0  0
 21 22  1  0  0  0  0
 21 23  1  0  0  0  0
 23 24  1  0  0  0  0
 23 25  1  0  0  0  0
 24 25  1  0  0  0  0
 26 27  2  0  0  0  0
 26 32  1  0  0  0  0
 27 28  1  0  0  0  0
 28 29  1  0  0  0  0
 28 30  2  0  0  0  0
 30 31  1  0  0  0  0
 31 32  2  0  0  0  0
 31 36  1  0  0  0  0
 32 33  1  0  0  0  0
 33 34  2  0  0  0  0
 34 35  1  0  0  0  0
 34 42  1  0  0  0  0
 35 36  2  0  0  0  0
 35 38  1  0  0  0  0
 36 37  1  0  0  0  0
 39 38  1  1  0  0  0
 39 40  1  0  0  0  0
 39 44  1  0  0  0  0
 39 45  1  0  0  0  0
 40 41  2  0  0  0  0
 40 42  1  0  0  0  0
 42 43  2  0  0  0  0
 45 44  1  6  0  0  0
 45 46  1  0  0  0  0
 45 47  1  0  0  0  0
 46 47  1  0  0  0  0
 47 48  2  0  0  0  0
 49 50  2  0  0  0  0
 49 51  1  0  0  0  0
 51 52  2  0  0  0  0
 51 53  1  0  0  0  0
 53 54  2  0  0  0  0
M  CHG  1  22   1
M  END
$$$$