
 OpenBabel11222014533D

 54 63  0  0  1  0  0  0  0  0999 V2000
    0.3434    3.5899   -0.1809 O   0  0  0  0  0  0  0  0  0  0  0  0
    0.6631    2.2626   -0.3012 C   0  0  0  0  0  0  0  0  0  0  0  0
    0.9340    1.6779   -1.4740 C   0  0  0  0  0  0  0  0  0  0  0  0
    0.8662    2.3713   -2.6758 O   0  0  0  0  0  0  0  0  0  0  0  0
    1.9675    2.1089   -3.5325 C   0  0  2  0  0  0  0  0  0  0  0  0
    1.7864    2.7436   -4.8335 O   0  0  0  0  0  0  0  0  0  0  0  0
    2.2649    4.0341   -5.0237 C   0  0  0  0  0  0  0  0  0  0  0  0
    2.6249    4.4982   -6.2504 C   0  0  0  0  0  0  0  0  0  0  0  0
    3.0225    5.8368   -6.4218 O   0  0  0  0  0  0  0  0  0  0  0  0
    2.7867    6.7846   -5.4214 C   0  0  0  0  0  0  0  0  0  0  0  0
    2.4482    6.3931   -4.1823 C   0  0  0  0  0  0  0  0  0  0  0  0
    2.2903    4.9495   -3.8218 C   0  0  0  0  0  0  0  0  0  0  0  0
    2.1661    7.3730   -3.0828 C   0  0  3  0  0  0  0  0  0  0  0  0
    3.1478    7.2071   -2.0781 O   0  0  0  0  0  0  0  0  0  0  0  0
    3.0092    8.0110   -0.9851 C   0  0  0  0  0  0  0  0  0  0  0  0
    3.5976    7.7842    0.0577 O   0  0  0  0  0  0  0  0  0  0  0  0
    2.1403    9.0425   -1.1375 O   0  0  0  0  0  0  0  0  0  0  0  0
    2.0254    9.6907   -2.3984 C   0  0  3  0  0  0  0  0  0  0  0  0
    2.2981    8.7729   -3.5369 C   0  0  0  0  0  0  0  0  0  0  0  0
    2.6411    9.1130   -4.7983 C   0  0  0  0  0  0  0  0  0  0  0  0
    2.9100    8.1243   -5.7391 O   0  3  0  0  0  0  0  0  0  0  0  0
    2.7684   10.5149   -5.2697 C   0  0  0  0  0  0  0  0  0  0  0  0
    4.0168   10.9972   -5.7850 O   0  0  0  0  0  0  0  0  0  0  0  0
    2.8997   10.8025   -6.6728 O   0  0  0  0  0  0  0  0  0  0  0  0
    0.6829   10.0921   -2.5858 O   0  0  0  0  0  0  0  0  0  0  0  0
    2.5996    3.6734   -7.5200 C   0  0  0  0  0  0  0  0  0  0  0  0
    2.8572    2.3038   -7.4487 C   0  0  0  0  0  0  0  0  0  0  0  0
    2.7132    1.5013   -8.5074 N   0  3  0  0  0  0  0  0  0  0  0  0
    2.9982    0.1904   -8.3772 F   0  0  0  0  0  0  0  0  0  0  0  0
    2.2772    1.9368   -9.6720 N   0  0  0  0  0  0  0  0  0  0  0  0
    2.0702    3.2421   -9.8557 C   0  0  0  0  0  0  0  0  0  0  0  0
    2.3014    4.1797   -8.8182 C   0  0  0  0  0  0  0  0  0  0  0  0
    2.2366    5.5476   -9.1685 C   0  0  0  0  0  0  0  0  0  0  0  0
    1.8732    5.9371  -10.4482 C   0  0  0  0  0  0  0  0  0  0  0  0
    1.9573    7.3196  -10.8726 C   0  0  0  0  0  0  0  0  0  0  0  0
    2.3201    8.4809  -10.5222 O   0  0  0  0  0  0  0  0  0  0  0  0
    1.8596    8.9263  -11.8616 O   0  0  0  0  0  0  0  0  0  0  0  0
    1.5341    7.7135  -12.0726 C   0  0  0  0  0  0  0  0  0  0  0  0
    0.8400    6.8006  -13.0636 C   0  0  1  0  0  0  0  0  0  0  0  0
    1.0203    5.3838  -12.6821 O   0  0  0  0  0  0  0  0  0  0  0  0
    1.4742    5.0345  -11.4264 C   0  0  0  0  0  0  0  0  0  0  0  0
    1.6168    3.6861  -11.1105 C   0  0  0  0  0  0  0  0  0  0  0  0
    1.3357    2.7669  -12.0484 F   0  0  0  0  0  0  0  0  0  0  0  0
   -0.6347    7.0856  -13.2848 C   0  0  1  0  0  0  0  0  0  0  0  0
   -1.3155    6.2356  -14.2317 O   0  0  0  0  0  0  0  0  0  0  0  0
   -1.4082    7.3979  -12.1201 O   0  0  0  0  0  0  0  0  0  0  0  0
   -1.2302    8.3848  -13.0187 C   0  0  0  0  0  0  0  0  0  0  0  0
   -0.7784    9.5044  -12.8624 O   0  0  0  0  0  0  0  0  0  0  0  0
    2.1866    0.6348   -3.8502 C   0  0  0  0  0  0  0  0  0  0  0  0
    2.8403    0.2295   -4.8060 O   0  0  0  0  0  0  0  0  0  0  0  0
    1.5602   -0.3007   -2.8474 C   0  0  0  0  0  0  0  0  0  0  0  0
    1.2349   -1.4256   -3.1821 O   0  0  0  0  0  0  0  0  0  0  0  0
    1.2869    0.2308   -1.4610 C   0  0  0  0  0  0  0  0  0  0  0  0
    1.4245   -0.4521   -0.4643 O   0  0  0  0  0  0  0  0  0  0  0  0
  1  2  1  0  0  0  0
  2  3  2  0  0  0  0
  3  4  1  0  0  0  0
  3 53  1  0  0  0  0
  4  5  1  0  0  0  0
  5  6  1  6  0  0  0
  5 49  1  0  0  0  0
  6  7  1  0  0  0  0
  7  8  2  0  0  0  0
  7 12  1  0  0  0  0
  8  9  1  0  0  0  0
  8 26  1  0  0  0  0
  9 10  1  0  0  0  0
 10 11  2  0  0  0  0
 10 21  1  0  0  0  0
 11 12  1  0  0  0  0
 11 13  1  0  0  0  0
 13 14  1  0  0  0  0
 13 19  1  0  0  0  0
 14 15  1  0  0  0  0
 15 16  2  0  0  0  0
 15 17  1  0  0  0  0
 17 18  1  0  0  0  0
 18 19  1  0  0  0  0
 18 25  1  0  0  0  0
 19 20  2  0  0  0  0
 20 21  1  0  0  0  0
 20 22  1  0  0  0  0
 22 23  1  0  0  0  0
 22 24  1  0  0  0  0
 23 24  1  0  0  0  0
 26 27  2  0  0  0  0
 26 32  1  0  0  0  0
 27 28  1  0  0  0  0
 28 29  1  0  0  0  0
 28 30  2  0  0  0  0
 30 31  1  0  0  0  0
 31 32  2  0  0  0  0
 31 42  1  0  0  0  0
 32 33  1  0  0  0  0
 33 34  2  0  0  0  0
 34 35  1  0  0  0  0
 34 41  1  0  0  0  0
 35 36  1  0  0  0  0
 35 38  2  0  0  0  0
 36 37  1  0  0  0  0
 37 38  1  0  0  0  0
 39 38  1  1  0  0  0
 39 40  1  0  0  0  0
 39 44  1  0  0  0  0
 40 41  1  0  0  0  0
 41 42  2  0  0  0  0
 42 43  1  0  0  0  0
 44 45  1  6  0  0  0
 44 46  1  0  0  0  0
 44 47  1  0  0  0  0
 46 47  1  0  0  0  0
 47 48  2  0  0  0  0
 49 50  2  0  0  0  0
 49 51  1  0  0  0  0
 51 52  2  0  0  0  0
 51 53  1  0  0  0  0
 53 54  2  0  0  0  0
M  CHG  2  21   1  28   1
M  END
$$$$