
 OpenBabel11152013283D

 54 62  0  0  1  0  0  0  0  0999 V2000
    3.7010    6.7633   -3.6275 O   0  0  0  0  0  0  0  0  0  0  0  0
    3.2335    5.5347   -4.0142 C   0  0  0  0  0  0  0  0  0  0  0  0
    2.7361    4.6406   -3.1510 C   0  0  0  0  0  0  0  0  0  0  0  0
    2.7478    4.8814   -1.7980 O   0  0  0  0  0  0  0  0  0  0  0  0
    1.5873    4.4527   -1.0968 C   0  0  2  0  0  0  0  0  0  0  0  0
    1.7132    4.8064    0.2975 O   0  0  0  0  0  0  0  0  0  0  0  0
    1.8430    6.1692    0.5771 C   0  0  0  0  0  0  0  0  0  0  0  0
    2.5203    6.6320    1.6533 C   0  0  0  0  0  0  0  0  0  0  0  0
    2.6575    7.9962    1.9355 O   0  0  0  0  0  0  0  0  0  0  0  0
    1.9858    8.9389    1.1540 C   0  0  0  0  0  0  0  0  0  0  0  0
    1.2408    8.5639    0.1044 C   0  0  0  0  0  0  0  0  0  0  0  0
    1.1445    7.1424   -0.3321 C   0  0  0  0  0  0  0  0  0  0  0  0
    0.4744    9.5436   -0.7195 C   0  0  3  0  0  0  0  0  0  0  0  0
   -0.9040    9.2147   -0.5907 O   0  0  0  0  0  0  0  0  0  0  0  0
   -1.8488   10.0498   -1.0831 C   0  0  0  0  0  0  0  0  0  0  0  0
   -3.0049    9.6800   -1.2363 O   0  0  0  0  0  0  0  0  0  0  0  0
   -1.4626   11.3132   -1.3827 O   0  0  0  0  0  0  0  0  0  0  0  0
   -0.1580   11.8283   -1.1402 C   0  0  3  0  0  0  0  0  0  0  0  0
    0.6544   10.9368   -0.2829 C   0  0  0  0  0  0  0  0  0  0  0  0
    1.4453   11.2769    0.7571 C   0  0  0  0  0  0  0  0  0  0  0  0
    2.1157   10.2849    1.4961 O   0  0  0  0  0  0  0  0  0  0  0  0
    1.6738   12.6752    1.1852 C   0  0  0  0  0  0  0  0  0  0  0  0
    0.7992   13.3275    2.1195 O   0  0  0  0  0  0  0  0  0  0  0  0
    2.1557   13.0151    2.4940 O   0  0  0  0  0  0  0  0  0  0  0  0
    0.5099   11.9516   -2.3859 O   0  0  0  0  0  0  0  0  0  0  0  0
    3.1895    5.7538    2.6357 C   0  0  0  0  0  0  0  0  0  0  0  0
    2.4301    5.4194    3.6992 N   0  0  0  0  0  0  0  0  0  0  0  0
    2.9255    4.6349    4.6152 N   0  0  0  0  0  0  0  0  0  0  0  0
    4.1446    4.1477    4.5340 N   0  0  0  0  0  0  0  0  0  0  0  0
    4.9458    4.4571    3.5020 C   0  0  0  0  0  0  0  0  0  0  0  0
    4.5027    5.3057    2.4912 C   0  0  0  0  0  0  0  0  0  0  0  0
    5.3756    5.6497    1.4282 C   0  0  0  0  0  0  0  0  0  0  0  0
    6.6697    5.1199    1.3616 C   0  0  0  0  0  0  0  0  0  0  0  0
    7.5589    5.5138    0.2680 C   0  0  0  0  0  0  0  0  0  0  0  0
    7.1725    6.2003   -0.6638 O   0  0  0  0  0  0  0  0  0  0  0  0
    8.9949    5.0718    0.3732 C   0  0  0  0  0  0  0  0  0  0  0  0
    9.8780    5.6575   -0.2378 O   0  0  0  0  0  0  0  0  0  0  0  0
    9.2217    3.8587    1.2487 C   0  0  1  0  0  0  0  0  0  0  0  0
    8.3530    3.6600    2.3680 O   0  0  0  0  0  0  0  0  0  0  0  0
    7.1182    4.2485    2.3379 C   0  0  0  0  0  0  0  0  0  0  0  0
    6.2526    3.9416    3.4002 C   0  0  0  0  0  0  0  0  0  0  0  0
    6.7096    3.0929    4.3885 O   0  0  0  0  0  0  0  0  0  0  0  0
    9.2597    2.6218    0.4097 C   0  0  1  0  0  0  0  0  0  0  0  0
    8.0653    2.3281   -0.3521 O   0  0  0  0  0  0  0  0  0  0  0  0
   10.5018    2.3960   -0.2617 O   0  0  0  0  0  0  0  0  0  0  0  0
   10.1453    1.4847    0.6641 C   0  0  0  0  0  0  0  0  0  0  0  0
    9.9513    0.2979    0.5443 O   0  0  0  0  0  0  0  0  0  0  0  0
    1.4045    2.9400   -1.2822 C   0  0  0  0  0  0  0  0  0  0  0  0
    1.1237    2.1874   -0.3433 O   0  0  0  0  0  0  0  0  0  0  0  0
    1.4729    2.4455   -2.7247 C   0  0  0  0  0  0  0  0  0  0  0  0
    2.2043    3.3577   -3.6983 C   0  0  0  0  0  0  0  0  0  0  0  0
    2.3273    3.0993   -4.8988 O   0  0  0  0  0  0  0  0  0  0  0  0
   -0.2504    2.2541   -3.3522 S   0  0  0  0  0  0  0  0  0  0  0  0
    2.2993    0.8013   -2.7519 S   0  0  0  0  0  0  0  0  0  0  0  0
  1  2  1  0  0  0  0
  2  3  2  0  0  0  0
  3  4  1  0  0  0  0
  3 51  1  0  0  0  0
  4  5  1  0  0  0  0
  5  6  1  1  0  0  0
  5 48  1  0  0  0  0
  6  7  1  0  0  0  0
  7  8  2  0  0  0  0
  7 12  1  0  0  0  0
  8  9  1  0  0  0  0
  8 26  1  0  0  0  0
  9 10  1  0  0  0  0
 10 11  2  0  0  0  0
 10 21  1  0  0  0  0
 11 12  1  0  0  0  0
 11 13  1  0  0  0  0
 13 14  1  0  0  0  0
 13 19  1  0  0  0  0
 14 15  1  0  0  0  0
 15 16  2  0  0  0  0
 15 17  1  0  0  0  0
 17 18  1  0  0  0  0
 18 19  1  0  0  0  0
 18 25  1  0  0  0  0
 19 20  2  0  0  0  0
 20 21  1  0  0  0  0
 20 22  1  0  0  0  0
 22 23  1  0  0  0  0
 22 24  1  0  0  0  0
 23 24  1  0  0  0  0
 26 27  2  0  0  0  0
 26 31  1  0  0  0  0
 27 28  1  0  0  0  0
 28 29  2  0  0  0  0
 29 30  1  0  0  0  0
 30 31  2  0  0  0  0
 30 41  1  0  0  0  0
 31 32  1  0  0  0  0
 32 33  2  0  0  0  0
 33 34  1  0  0  0  0
 33 40  1  0  0  0  0
 34 35  2  0  0  0  0
 34 36  1  0  0  0  0
 36 37  2  0  0  0  0
 38 36  1  6  0  0  0
 38 39  1  0  0  0  0
 38 43  1  0  0  0  0
 39 40  1  0  0  0  0
 40 41  2  0  0  0  0
 41 42  1  0  0  0  0
 43 44  1  6  0  0  0
 43 45  1  0  0  0  0
 43 46  1  0  0  0  0
 45 46  1  0  0  0  0
 46 47  2  0  0  0  0
 48 49  2  0  0  0  0
 48 50  1  0  0  0  0
 50 51  1  0  0  0  0
 50 53  1  0  0  0  0
 50 54  1  0  0  0  0
 51 52  2  0  0  0  0
M  END
$$$$