
 OpenBabel11262000103D

 54 62  0  0  1  0  0  0  0  0999 V2000
   -0.2756    0.9663    5.9901 O   0  0  0  0  0  0  0  0  0  0  0  0
    0.2916    0.2317    4.9798 C   0  0  0  0  0  0  0  0  0  0  0  0
    0.4917    0.7185    3.7485 C   0  0  0  0  0  0  0  0  0  0  0  0
    0.0951    1.9979    3.4081 O   0  0  0  0  0  0  0  0  0  0  0  0
    0.9864    2.6675    2.5064 C   0  0  2  0  0  0  0  0  0  0  0  0
    0.6531    4.0590    2.3902 O   0  0  0  0  0  0  0  0  0  0  0  0
    0.8629    4.8727    3.5068 C   0  0  0  0  0  0  0  0  0  0  0  0
    0.7195    6.2165    3.4413 C   0  0  0  0  0  0  0  0  0  0  0  0
    0.8946    7.0783    4.5201 O   0  0  0  0  0  0  0  0  0  0  0  0
    1.1431    6.5448    5.7664 C   0  0  0  0  0  0  0  0  0  0  0  0
    1.2843    5.1924    5.9596 C   0  0  0  0  0  0  0  0  0  0  0  0
    1.2184    4.2386    4.8215 C   0  0  0  0  0  0  0  0  0  0  0  0
    1.4609    4.7502    7.2640 C   0  0  0  0  0  0  0  0  0  0  0  0
    1.5431    3.3708    7.4820 O   0  0  0  0  0  0  0  0  0  0  0  0
    1.8455    2.8114    8.7201 C   0  0  0  0  0  0  0  0  0  0  0  0
    1.9368    1.5974    8.8543 O   0  0  0  0  0  0  0  0  0  0  0  0
    2.0925    3.6807    9.7257 O   0  0  0  0  0  0  0  0  0  0  0  0
    1.6378    5.0355    9.6951 C   0  0  3  0  0  0  0  0  0  0  0  0
    1.5029    5.6167    8.3310 C   0  0  0  0  0  0  0  0  0  0  0  0
    1.3752    6.9850    8.0644 C   0  0  0  0  0  0  0  0  0  0  0  0
    1.2024    7.4305    6.7832 N   0  0  0  0  0  0  0  0  0  0  0  0
    1.4336    8.0164    9.1672 C   0  0  0  0  0  0  0  0  0  0  0  0
    0.6489    9.2097    9.0200 O   0  0  0  0  0  0  0  0  0  0  0  0
    0.2568    8.1977    9.9679 O   0  0  0  0  0  0  0  0  0  0  0  0
    0.4212    5.1286   10.4151 O   0  0  0  0  0  0  0  0  0  0  0  0
    0.3509    6.9138    2.1942 C   0  0  0  0  0  0  0  0  0  0  0  0
    1.4094    7.3125    1.4470 N   0  0  0  0  0  0  0  0  0  0  0  0
    1.1388    7.8811    0.2585 C   0  0  0  0  0  0  0  0  0  0  0  0
    2.1783    8.2859   -0.4844 F   0  0  0  0  0  0  0  0  0  0  0  0
   -0.1332    8.0508   -0.2495 C   0  0  0  0  0  0  0  0  0  0  0  0
   -1.2241    7.6315    0.5165 C   0  0  0  0  0  0  0  0  0  0  0  0
   -0.9992    7.0868    1.8000 C   0  0  0  0  0  0  0  0  0  0  0  0
   -2.1282    6.7489    2.5859 C   0  0  0  0  0  0  0  0  0  0  0  0
   -3.4249    6.8548    2.0664 C   0  0  0  0  0  0  0  0  0  0  0  0
   -4.5880    6.4997    2.8917 C   0  0  0  0  0  0  0  0  0  0  0  0
   -4.4821    6.1854    4.0658 O   0  0  0  0  0  0  0  0  0  0  0  0
   -5.9324    6.5166    2.1995 C   0  0  0  0  0  0  0  0  0  0  0  0
   -6.9737    6.5820    2.8352 O   0  0  0  0  0  0  0  0  0  0  0  0
   -5.8414    6.3826    0.7016 C   0  0  1  0  0  0  0  0  0  0  0  0
   -4.8495    7.2558    0.1355 O   0  0  0  0  0  0  0  0  0  0  0  0
   -3.6312    7.2690    0.7578 C   0  0  0  0  0  0  0  0  0  0  0  0
   -2.5359    7.7112    0.0172 C   0  0  0  0  0  0  0  0  0  0  0  0
   -2.7384    8.1802   -1.2255 F   0  0  0  0  0  0  0  0  0  0  0  0
   -5.6249    4.9521    0.2845 C   0  0  1  0  0  0  0  0  0  0  0  0
   -4.4381    4.2875    0.7742 O   0  0  0  0  0  0  0  0  0  0  0  0
   -6.7856    4.1162    0.2957 O   0  0  0  0  0  0  0  0  0  0  0  0
   -6.2708    4.4167   -0.9031 C   0  0  0  0  0  0  0  0  0  0  0  0
   -6.7772    4.9285   -1.8724 O   0  0  0  0  0  0  0  0  0  0  0  0
    0.8790    1.9327    1.1780 C   0  0  0  0  0  0  0  0  0  0  0  0
    0.6450    2.4290    0.0870 O   0  0  0  0  0  0  0  0  0  0  0  0
    1.1072    0.4412    1.3321 C   0  0  0  0  0  0  0  0  0  0  0  0
    1.2843   -0.2678    0.3546 O   0  0  0  0  0  0  0  0  0  0  0  0
    1.1142   -0.1627    2.7251 C   0  0  0  0  0  0  0  0  0  0  0  0
    1.6183   -1.2457    2.9653 O   0  0  0  0  0  0  0  0  0  0  0  0
  1  2  1  0  0  0  0
  2  3  2  0  0  0  0
  3  4  1  0  0  0  0
  3 53  1  0  0  0  0
  4  5  1  0  0  0  0
  5  6  1  6  0  0  0
  5 49  1  0  0  0  0
  6  7  1  0  0  0  0
  7  8  2  0  0  0  0
  7 12  1  0  0  0  0
  8  9  1  0  0  0  0
  8 26  1  0  0  0  0
  9 10  1  0  0  0  0
 10 11  2  0  0  0  0
 10 21  1  0  0  0  0
 11 12  1  0  0  0  0
 11 13  1  0  0  0  0
 13 14  1  0  0  0  0
 13 19  2  0  0  0  0
 14 15  1  0  0  0  0
 15 16  2  0  0  0  0
 15 17  1  0  0  0  0
 17 18  1  0  0  0  0
 18 19  1  0  0  0  0
 18 25  1  0  0  0  0
 19 20  1  0  0  0  0
 20 21  2  0  0  0  0
 20 22  1  0  0  0  0
 22 23  1  0  0  0  0
 22 24  1  0  0  0  0
 23 24  1  0  0  0  0
 26 27  2  0  0  0  0
 26 32  1  0  0  0  0
 27 28  1  0  0  0  0
 28 29  1  0  0  0  0
 28 30  2  0  0  0  0
 30 31  1  0  0  0  0
 31 32  2  0  0  0  0
 31 42  1  0  0  0  0
 32 33  1  0  0  0  0
 33 34  2  0  0  0  0
 34 35  1  0  0  0  0
 34 41  1  0  0  0  0
 35 36  2  0  0  0  0
 35 37  1  0  0  0  0
 37 38  2  0  0  0  0
 39 37  1  1  0  0  0
 39 40  1  0  0  0  0
 39 44  1  0  0  0  0
 40 41  1  0  0  0  0
 41 42  2  0  0  0  0
 42 43  1  0  0  0  0
 44 45  1  1  0  0  0
 44 46  1  0  0  0  0
 44 47  1  0  0  0  0
 46 47  1  0  0  0  0
 47 48  2  0  0  0  0
 49 50  2  0  0  0  0
 49 51  1  0  0  0  0
 51 52  2  0  0  0  0
 51 53  1  0  0  0  0
 53 54  2  0  0  0  0
M  END
$$$$