
 OpenBabel11212020023D

 54 62  0  0  1  0  0  0  0  0999 V2000
    0.2837   -3.0039   -3.5304 O   0  0  0  0  0  0  0  0  0  0  0  0
    0.8302   -1.8844   -2.9495 C   0  0  0  0  0  0  0  0  0  0  0  0
    1.5279   -1.9400   -1.8079 C   0  0  0  0  0  0  0  0  0  0  0  0
    1.6810   -3.1578   -1.1816 O   0  0  0  0  0  0  0  0  0  0  0  0
    2.5964   -3.2591   -0.1179 C   0  0  2  0  0  0  0  0  0  0  0  0
    2.2723   -4.4188    0.6931 O   0  0  0  0  0  0  0  0  0  0  0  0
    2.4270   -5.7008    0.1779 C   0  0  0  0  0  0  0  0  0  0  0  0
    2.0336   -6.8026    0.8701 C   0  0  0  0  0  0  0  0  0  0  0  0
    2.1898   -8.0987    0.3287 O   0  0  0  0  0  0  0  0  0  0  0  0
    2.8223   -8.2908   -0.9087 C   0  0  0  0  0  0  0  0  0  0  0  0
    3.3011   -7.2432   -1.5964 C   0  0  0  0  0  0  0  0  0  0  0  0
    3.1124   -5.8355   -1.1517 C   0  0  0  0  0  0  0  0  0  0  0  0
    4.1016   -7.3919   -2.8528 C   0  0  3  0  0  0  0  0  0  0  0  0
    5.4127   -6.9552   -2.5376 O   0  0  0  0  0  0  0  0  0  0  0  0
    6.3721   -7.0625   -3.4922 C   0  0  0  0  0  0  0  0  0  0  0  0
    7.4198   -6.4444   -3.4012 O   0  0  0  0  0  0  0  0  0  0  0  0
    6.1015   -7.9051   -4.5164 O   0  0  0  0  0  0  0  0  0  0  0  0
    5.0317   -8.8474   -4.5185 C   0  0  3  0  0  0  0  0  0  0  0  0
    4.2207   -8.7997   -3.2720 C   0  0  0  0  0  0  0  0  0  0  0  0
    3.6686   -9.8211   -2.5781 C   0  0  0  0  0  0  0  0  0  0  0  0
    2.9763   -9.5784   -1.3907 O   0  3  0  0  0  0  0  0  0  0  0  0
    3.7775  -11.2385   -2.9941 C   0  0  0  0  0  0  0  0  0  0  0  0
    4.8635  -12.0563   -2.5419 O   0  0  0  0  0  0  0  0  0  0  0  0
    3.5296  -12.2953   -2.0521 O   0  0  0  0  0  0  0  0  0  0  0  0
    4.1312   -8.5077   -5.5541 O   0  0  0  0  0  0  0  0  0  0  0  0
    1.4549   -6.7471    2.2709 C   0  0  0  0  0  0  0  0  0  0  0  0
    1.8727   -5.7175    3.1213 C   0  0  0  0  0  0  0  0  0  0  0  0
    1.4061   -5.5945    4.3636 N   0  3  0  0  0  0  0  0  0  0  0  0
    1.8435   -4.5765    5.1296 F   0  0  0  0  0  0  0  0  0  0  0  0
    0.5481   -6.4374    4.8797 N   0  0  0  0  0  0  0  0  0  0  0  0
    0.1014   -7.4722    4.1676 C   0  0  0  0  0  0  0  0  0  0  0  0
    0.5416   -7.6861    2.8356 C   0  0  0  0  0  0  0  0  0  0  0  0
    0.0324   -8.8240    2.1692 C   0  0  0  0  0  0  0  0  0  0  0  0
   -0.8603   -9.7103    2.7858 C   0  0  0  0  0  0  0  0  0  0  0  0
   -1.3058  -10.9012    2.0597 C   0  0  0  0  0  0  0  0  0  0  0  0
   -0.7860  -11.2015    0.9946 O   0  0  0  0  0  0  0  0  0  0  0  0
   -2.3846  -11.7294    2.7175 C   0  0  0  0  0  0  0  0  0  0  0  0
   -2.5591  -12.8881    2.3751 O   0  0  0  0  0  0  0  0  0  0  0  0
   -3.1580  -10.9980    3.7924 C   0  0  1  0  0  0  0  0  0  0  0  0
   -2.2917  -10.2376    4.6619 O   0  0  0  0  0  0  0  0  0  0  0  0
   -1.3273   -9.4694    4.0638 C   0  0  0  0  0  0  0  0  0  0  0  0
   -0.8266   -8.3578    4.7603 C   0  0  0  0  0  0  0  0  0  0  0  0
   -1.4111   -8.0278    6.4387 S   0  0  0  0  0  0  0  0  0  0  0  0
   -4.3067  -10.1895    3.2310 C   0  0  1  0  0  0  0  0  0  0  0  0
   -5.2810  -10.9251    2.4698 O   0  0  0  0  0  0  0  0  0  0  0  0
   -4.8502   -9.1909    4.1119 O   0  0  0  0  0  0  0  0  0  0  0  0
   -4.2734   -8.7599    2.9875 C   0  0  0  0  0  0  0  0  0  0  0  0
   -3.3566   -7.9826    2.7735 O   0  0  0  0  0  0  0  0  0  0  0  0
    2.6079   -2.0360    0.7953 C   0  0  0  0  0  0  0  0  0  0  0  0
    2.5883   -2.1495    2.0247 O   0  0  0  0  0  0  0  0  0  0  0  0
    2.8112   -0.7283    0.0666 C   0  0  3  0  0  0  0  0  0  0  0  0
    2.0417   -0.6532   -1.2315 C   0  0  0  0  0  0  0  0  0  0  0  0
    1.8721    0.4092   -1.8273 O   0  0  0  0  0  0  0  0  0  0  0  0
    2.5352    0.3366    0.8755 F   0  0  0  0  0  0  0  0  0  0  0  0
  1  2  1  0  0  0  0
  2  3  2  0  0  0  0
  3  4  1  0  0  0  0
  3 52  1  0  0  0  0
  4  5  1  0  0  0  0
  5  6  1  1  0  0  0
  5 49  1  0  0  0  0
  6  7  1  0  0  0  0
  7  8  2  0  0  0  0
  7 12  1  0  0  0  0
  8  9  1  0  0  0  0
  8 26  1  0  0  0  0
  9 10  1  0  0  0  0
 10 11  2  0  0  0  0
 10 21  1  0  0  0  0
 11 12  1  0  0  0  0
 11 13  1  0  0  0  0
 13 14  1  0  0  0  0
 13 19  1  0  0  0  0
 14 15  1  0  0  0  0
 15 16  2  0  0  0  0
 15 17  1  0  0  0  0
 17 18  1  0  0  0  0
 18 19  1  0  0  0  0
 18 25  1  0  0  0  0
 19 20  2  0  0  0  0
 20 21  1  0  0  0  0
 20 22  1  0  0  0  0
 22 23  1  0  0  0  0
 22 24  1  0  0  0  0
 23 24  1  0  0  0  0
 26 27  2  0  0  0  0
 26 32  1  0  0  0  0
 27 28  1  0  0  0  0
 28 29  1  0  0  0  0
 28 30  2  0  0  0  0
 30 31  1  0  0  0  0
 31 32  2  0  0  0  0
 31 42  1  0  0  0  0
 32 33  1  0  0  0  0
 33 34  2  0  0  0  0
 34 35  1  0  0  0  0
 34 41  1  0  0  0  0
 35 36  2  0  0  0  0
 35 37  1  0  0  0  0
 37 38  2  0  0  0  0
 39 37  1  6  0  0  0
 39 40  1  0  0  0  0
 39 44  1  0  0  0  0
 40 41  1  0  0  0  0
 41 42  2  0  0  0  0
 42 43  1  0  0  0  0
 44 45  1  6  0  0  0
 44 46  1  0  0  0  0
 44 47  1  0  0  0  0
 46 47  1  0  0  0  0
 47 48  2  0  0  0  0
 49 50  2  0  0  0  0
 49 51  1  0  0  0  0
 51 52  1  0  0  0  0
 51 54  1  0  0  0  0
 52 53  2  0  0  0  0
M  CHG  2  21   1  28   1
M  END
$$$$