
 OpenBabel11222023453D

 53 62  0  0  1  0  0  0  0  0999 V2000
    3.0579   -7.9082   -5.6639 O   0  0  0  0  0  0  0  0  0  0  0  0
    2.6843   -6.7200   -6.2379 C   0  0  0  0  0  0  0  0  0  0  0  0
    2.9822   -5.5190   -5.7248 C   0  0  0  0  0  0  0  0  0  0  0  0
    3.6403   -5.3678   -4.5189 O   0  0  0  0  0  0  0  0  0  0  0  0
    4.6587   -4.3711   -4.5726 C   0  0  2  0  0  0  0  0  0  0  0  0
    5.4245   -4.3759   -3.3384 O   0  0  0  0  0  0  0  0  0  0  0  0
    6.0480   -5.5622   -2.9530 C   0  0  0  0  0  0  0  0  0  0  0  0
    6.4244   -5.7975   -1.6631 C   0  0  0  0  0  0  0  0  0  0  0  0
    7.1130   -6.9519   -1.2842 O   0  0  0  0  0  0  0  0  0  0  0  0
    7.6928   -7.6989   -2.3632 C   0  0  3  0  0  0  0  0  0  0  0  0
    6.6952   -7.9349   -3.4760 C   0  0  3  0  0  0  0  0  0  0  0  0
    6.2770   -6.5923   -4.0349 C   0  0  0  0  0  0  0  0  0  0  0  0
    7.3050   -8.8012   -4.5512 C   0  0  0  0  0  0  0  0  0  0  0  0
    6.5944   -9.1044   -5.5774 N   0  0  0  0  0  0  0  0  0  0  0  0
    7.1461   -9.8864   -6.5700 C   0  0  0  0  0  0  0  0  0  0  0  0
    6.6376   -9.8791   -7.6786 O   0  0  0  0  0  0  0  0  0  0  0  0
    8.2587  -10.6555   -6.3285 N   0  0  0  0  0  0  0  0  0  0  0  0
    9.0089  -10.3785   -5.3225 C   0  0  0  0  0  0  0  0  0  0  0  0
    8.7175   -9.2634   -4.3632 C   0  0  3  0  0  0  0  0  0  0  0  0
    8.9075   -9.7142   -2.9042 C   0  0  3  0  0  0  0  0  0  0  0  0
    8.1875   -8.9429   -1.9320 O   0  3  0  0  0  0  0  0  0  0  0  0
   10.3655   -9.7858   -2.5117 C   0  0  0  0  0  0  0  0  0  0  0  0
   10.5770  -10.0673   -1.1273 O   0  0  0  0  0  0  0  0  0  0  0  0
   10.8143   -8.7392   -1.6479 O   0  0  0  0  0  0  0  0  0  0  0  0
    6.1000   -4.8684   -0.5207 C   0  0  0  0  0  0  0  0  0  0  0  0
    6.1037   -3.4960   -0.7784 C   0  0  0  0  0  0  0  0  0  0  0  0
    5.6494   -2.6155    0.1137 N   0  3  0  0  0  0  0  0  0  0  0  0
    5.5857   -1.3148   -0.2301 F   0  0  0  0  0  0  0  0  0  0  0  0
    5.2097   -2.9756    1.2997 N   0  0  0  0  0  0  0  0  0  0  0  0
    5.2370   -4.2595    1.6580 C   0  0  0  0  0  0  0  0  0  0  0  0
    5.7140   -5.2745    0.7968 C   0  0  0  0  0  0  0  0  0  0  0  0
    5.7379   -6.6000    1.3258 C   0  0  0  0  0  0  0  0  0  0  0  0
    5.2513   -6.9029    2.6117 C   0  0  0  0  0  0  0  0  0  0  0  0
    4.7121   -5.9057    3.3961 C   0  0  0  0  0  0  0  0  0  0  0  0
    4.7418   -4.5982    2.9211 C   0  0  0  0  0  0  0  0  0  0  0  0
    4.2461   -3.6231    3.6988 F   0  0  0  0  0  0  0  0  0  0  0  0
    4.1718   -6.1468    4.6310 O   0  0  0  0  0  0  0  0  0  0  0  0
    3.6190   -7.4814    4.7755 C   0  0  1  0  0  0  0  0  0  0  0  0
    4.5118   -8.5919    4.3983 C   0  0  0  0  0  0  0  0  0  0  0  0
    4.5381   -9.6836    4.9359 O   0  0  0  0  0  0  0  0  0  0  0  0
    5.3090   -8.2769    3.1389 C   0  0  0  0  0  0  0  0  0  0  0  0
    5.9611   -9.1200    2.5402 O   0  0  0  0  0  0  0  0  0  0  0  0
    2.7766   -7.6817    5.8809 O   0  0  0  0  0  0  0  0  0  0  0  0
    2.1453   -7.7044    4.5650 C   0  0  1  0  0  0  0  0  0  0  0  0
    1.6160   -6.4499    4.0146 O   0  0  0  0  0  0  0  0  0  0  0  0
    0.8160   -7.1874    4.7458 C   0  0  0  0  0  0  0  0  0  0  0  0
   -0.2891   -7.6476    4.4830 O   0  0  0  0  0  0  0  0  0  0  0  0
    4.0510   -2.9938   -4.7933 C   0  0  0  0  0  0  0  0  0  0  0  0
    4.4832   -1.9625   -4.2959 O   0  0  0  0  0  0  0  0  0  0  0  0
    2.8842   -3.0170   -5.7625 C   0  0  0  0  0  0  0  0  0  0  0  0
    2.2077   -2.0199   -5.9395 O   0  0  0  0  0  0  0  0  0  0  0  0
    2.5726   -4.3116   -6.4880 C   0  0  0  0  0  0  0  0  0  0  0  0
    2.1245   -4.3330   -7.6181 O   0  0  0  0  0  0  0  0  0  0  0  0
  1  2  1  0  0  0  0
  2  3  2  0  0  0  0
  3  4  1  0  0  0  0
  3 52  1  0  0  0  0
  4  5  1  0  0  0  0
  5  6  1  1  0  0  0
  5 48  1  0  0  0  0
  6  7  1  0  0  0  0
  7  8  2  0  0  0  0
  7 12  1  0  0  0  0
  8  9  1  0  0  0  0
  8 25  1  0  0  0  0
  9 10  1  0  0  0  0
 10 11  1  0  0  0  0
 10 21  1  0  0  0  0
 11 12  1  0  0  0  0
 11 13  1  0  0  0  0
 13 14  2  0  0  0  0
 13 19  1  0  0  0  0
 14 15  1  0  0  0  0
 15 16  2  0  0  0  0
 15 17  1  0  0  0  0
 17 18  2  0  0  0  0
 18 19  1  0  0  0  0
 19 20  1  0  0  0  0
 20 21  1  0  0  0  0
 20 22  1  0  0  0  0
 22 23  1  0  0  0  0
 22 24  1  0  0  0  0
 23 24  1  0  0  0  0
 25 26  2  0  0  0  0
 25 31  1  0  0  0  0
 26 27  1  0  0  0  0
 27 28  1  0  0  0  0
 27 29  2  0  0  0  0
 29 30  1  0  0  0  0
 30 31  2  0  0  0  0
 30 35  1  0  0  0  0
 31 32  1  0  0  0  0
 32 33  2  0  0  0  0
 33 34  1  0  0  0  0
 33 41  1  0  0  0  0
 34 35  2  0  0  0  0
 34 37  1  0  0  0  0
 35 36  1  0  0  0  0
 38 37  1  6  0  0  0
 38 39  1  0  0  0  0
 38 43  1  0  0  0  0
 38 44  1  0  0  0  0
 39 40  2  0  0  0  0
 39 41  1  0  0  0  0
 41 42  2  0  0  0  0
 44 43  1  1  0  0  0
 44 45  1  0  0  0  0
 44 46  1  0  0  0  0
 45 46  1  0  0  0  0
 46 47  2  0  0  0  0
 48 49  2  0  0  0  0
 48 50  1  0  0  0  0
 50 51  2  0  0  0  0
 50 52  1  0  0  0  0
 52 53  2  0  0  0  0
M  CHG  2  21   1  27   1
M  END
$$$$