
 OpenBabel11142001173D

 52 60  0  0  1  0  0  0  0  0999 V2000
    6.3024   -1.2488    0.1510 O   0  0  0  0  0  0  0  0  0  0  0  0
    6.4642   -1.8246    1.3843 C   0  0  0  0  0  0  0  0  0  0  0  0
    5.5444   -2.5922    1.9785 C   0  0  0  0  0  0  0  0  0  0  0  0
    4.3331   -2.8607    1.3560 O   0  0  0  0  0  0  0  0  0  0  0  0
    3.8505   -4.1932    1.6175 C   0  0  2  0  0  0  0  0  0  0  0  0
    2.6742   -4.4322    0.8306 O   0  0  0  0  0  0  0  0  0  0  0  0
    2.4337   -5.7193    0.3589 C   0  0  0  0  0  0  0  0  0  0  0  0
    1.8251   -5.9466   -0.8350 C   0  0  0  0  0  0  0  0  0  0  0  0
    1.6130   -7.2468   -1.3231 O   0  0  0  0  0  0  0  0  0  0  0  0
    2.0271   -8.3466   -0.5832 C   0  0  0  0  0  0  0  0  0  0  0  0
    2.5570   -8.2080    0.6383 C   0  0  0  0  0  0  0  0  0  0  0  0
    2.7806   -6.8818    1.2669 C   0  0  0  0  0  0  0  0  0  0  0  0
    2.9399   -9.4364    1.3912 C   0  0  0  0  0  0  0  0  0  0  0  0
    3.4195   -9.3435    2.5943 N   0  0  0  0  0  0  0  0  0  0  0  0
    3.7244  -10.5096    3.2330 C   0  0  0  0  0  0  0  0  0  0  0  0
    4.1191  -10.3747    4.4443 N   0  0  0  0  0  0  0  0  0  0  0  0
    3.6599  -11.7756    2.7377 N   0  0  0  0  0  0  0  0  0  0  0  0
    3.1931  -11.8691    1.5498 C   0  0  0  0  0  0  0  0  0  0  0  0
    2.7550  -10.7522    0.7153 C   0  0  0  0  0  0  0  0  0  0  0  0
    2.2376  -10.7773   -0.5322 C   0  0  0  0  0  0  0  0  0  0  0  0
    1.8813   -9.5840   -1.1536 N   0  0  0  0  0  0  0  0  0  0  0  0
    2.0062  -12.0056   -1.3317 C   0  0  0  0  0  0  0  0  0  0  0  0
    0.7762  -12.7412   -1.2498 O   0  0  0  0  0  0  0  0  0  0  0  0
    1.1012  -12.0187   -2.4525 O   0  0  0  0  0  0  0  0  0  0  0  0
    3.1094  -13.0896    1.0132 O   0  0  0  0  0  0  0  0  0  0  0  0
    1.3349   -4.8402   -1.8253 C   0  0  3  0  0  0  0  0  0  0  0  0
    2.0956   -3.7118   -1.7623 N   0  0  0  0  0  0  0  0  0  0  0  0
    1.4809   -2.5400   -1.5327 C   0  0  0  0  0  0  0  0  0  0  0  0
    0.1634   -2.3446   -1.4226 N   0  0  0  0  0  0  0  0  0  0  0  0
   -0.6173   -3.4080   -1.5863 C   0  0  0  0  0  0  0  0  0  0  0  0
   -0.1035   -4.7010   -1.8102 C   0  0  0  0  0  0  0  0  0  0  0  0
   -1.0380   -5.7417   -2.0625 C   0  0  0  0  0  0  0  0  0  0  0  0
   -2.4220   -5.5130   -2.0106 C   0  0  0  0  0  0  0  0  0  0  0  0
   -2.9088   -4.2439   -1.7586 C   0  0  0  0  0  0  0  0  0  0  0  0
   -1.9971   -3.2075   -1.5510 C   0  0  0  0  0  0  0  0  0  0  0  0
   -4.2301   -3.9172   -1.6588 O   0  0  0  0  0  0  0  0  0  0  0  0
   -5.1745   -4.8395   -2.2059 C   0  0  2  0  0  0  0  0  0  0  0  0
   -4.8328   -6.3122   -2.1458 C   0  0  0  0  0  0  0  0  0  0  0  0
   -5.6674   -7.2077   -2.1442 O   0  0  0  0  0  0  0  0  0  0  0  0
   -3.3572   -6.6323   -2.1488 C   0  0  0  0  0  0  0  0  0  0  0  0
   -2.9594   -7.7851   -2.2204 O   0  0  0  0  0  0  0  0  0  0  0  0
   -5.5202   -4.4373   -3.6045 C   0  0  1  0  0  0  0  0  0  0  0  0
   -4.4330   -4.4361   -4.5615 O   0  0  0  0  0  0  0  0  0  0  0  0
   -6.7725   -4.9328   -4.0839 O   0  0  0  0  0  0  0  0  0  0  0  0
   -6.6685   -3.5970   -3.9460 C   0  0  0  0  0  0  0  0  0  0  0  0
   -6.7767   -2.7225   -4.7735 O   0  0  0  0  0  0  0  0  0  0  0  0
    3.5531   -4.3329    3.1116 C   0  0  0  0  0  0  0  0  0  0  0  0
    2.5849   -4.8927    3.6052 O   0  0  0  0  0  0  0  0  0  0  0  0
    4.6363   -3.7591    3.9904 C   0  0  0  0  0  0  0  0  0  0  0  0
    4.5386   -3.7919    5.2062 O   0  0  0  0  0  0  0  0  0  0  0  0
    5.8407   -3.1283    3.3345 C   0  0  0  0  0  0  0  0  0  0  0  0
    6.9360   -3.1198    3.8671 O   0  0  0  0  0  0  0  0  0  0  0  0
  1  2  1  0  0  0  0
  2  3  2  0  0  0  0
  3  4  1  0  0  0  0
  3 51  1  0  0  0  0
  4  5  1  0  0  0  0
  5  6  1  6  0  0  0
  5 47  1  0  0  0  0
  6  7  1  0  0  0  0
  7  8  2  0  0  0  0
  7 12  1  0  0  0  0
  8  9  1  0  0  0  0
  8 26  1  0  0  0  0
  9 10  1  0  0  0  0
 10 11  2  0  0  0  0
 10 21  1  0  0  0  0
 11 12  1  0  0  0  0
 11 13  1  0  0  0  0
 13 14  2  0  0  0  0
 13 19  1  0  0  0  0
 14 15  1  0  0  0  0
 15 16  2  0  0  0  0
 15 17  1  0  0  0  0
 17 18  2  0  0  0  0
 18 19  1  0  0  0  0
 18 25  1  0  0  0  0
 19 20  2  0  0  0  0
 20 21  1  0  0  0  0
 20 22  1  0  0  0  0
 22 23  1  0  0  0  0
 22 24  1  0  0  0  0
 23 24  1  0  0  0  0
 26 27  1  0  0  0  0
 26 31  1  0  0  0  0
 27 28  2  0  0  0  0
 28 29  2  0  0  0  0
 29 30  1  0  0  0  0
 30 31  2  0  0  0  0
 30 35  1  0  0  0  0
 31 32  1  0  0  0  0
 32 33  2  0  0  0  0
 33 34  1  0  0  0  0
 33 40  1  0  0  0  0
 34 35  2  0  0  0  0
 34 36  1  0  0  0  0
 37 36  1  6  0  0  0
 37 38  1  0  0  0  0
 37 42  1  0  0  0  0
 38 39  2  0  0  0  0
 38 40  1  0  0  0  0
 40 41  2  0  0  0  0
 42 43  1  6  0  0  0
 42 44  1  0  0  0  0
 42 45  1  0  0  0  0
 44 45  1  0  0  0  0
 45 46  2  0  0  0  0
 47 48  2  0  0  0  0
 47 49  1  0  0  0  0
 49 50  2  0  0  0  0
 49 51  1  0  0  0  0
 51 52  2  0  0  0  0
M  END
$$$$