
 OpenBabel11212020193D

 53 61  0  0  1  0  0  0  0  0999 V2000
    7.6497   -2.9329   -6.0655 O   0  0  0  0  0  0  0  0  0  0  0  0
    7.4472   -3.8441   -5.0603 C   0  0  0  0  0  0  0  0  0  0  0  0
    6.3698   -3.8259   -4.2654 C   0  0  0  0  0  0  0  0  0  0  0  0
    5.4082   -2.8364   -4.4012 O   0  0  0  0  0  0  0  0  0  0  0  0
    4.0765   -3.2337   -4.0923 C   0  0  2  0  0  0  0  0  0  0  0  0
    3.1584   -2.1326   -4.2950 O   0  0  0  0  0  0  0  0  0  0  0  0
    2.9462   -1.7792   -5.6254 C   0  0  0  0  0  0  0  0  0  0  0  0
    2.6377   -0.5169   -6.0103 C   0  0  0  0  0  0  0  0  0  0  0  0
    2.3802   -0.1967   -7.3581 O   0  0  0  0  0  0  0  0  0  0  0  0
    2.2740   -1.2004   -8.3112 C   0  0  0  0  0  0  0  0  0  0  0  0
    2.4902   -2.4806   -7.9904 C   0  0  0  0  0  0  0  0  0  0  0  0
    2.9141   -2.9084   -6.6382 C   0  0  0  0  0  0  0  0  0  0  0  0
    2.3067   -3.5193   -9.0380 C   0  0  0  0  0  0  0  0  0  0  0  0
    2.4018   -4.7720   -8.7388 N   0  0  0  0  0  0  0  0  0  0  0  0
    2.2069   -5.7137   -9.7313 C   0  0  0  0  0  0  0  0  0  0  0  0
    2.1746   -6.8921   -9.4043 O   0  0  0  0  0  0  0  0  0  0  0  0
    2.0482   -5.3873  -11.0633 N   0  0  0  0  0  0  0  0  0  0  0  0
    1.9579   -4.1449  -11.3893 C   0  0  0  0  0  0  0  0  0  0  0  0
    2.0233   -3.0574  -10.4118 C   0  0  0  0  0  0  0  0  0  0  0  0
    1.8617   -1.7406  -10.6537 C   0  0  0  0  0  0  0  0  0  0  0  0
    1.9353   -0.8391   -9.5918 N   0  0  0  0  0  0  0  0  0  0  0  0
    1.6169   -1.1534  -11.9953 C   0  0  0  0  0  0  0  0  0  0  0  0
    1.4846    0.2664  -12.1893 O   0  0  0  0  0  0  0  0  0  0  0  0
    2.6455   -0.4271  -12.6864 O   0  0  0  0  0  0  0  0  0  0  0  0
    2.3498    0.6442   -5.1246 C   0  0  0  0  0  0  0  0  0  0  0  0
    1.1944    1.2355   -5.4828 N   0  0  0  0  0  0  0  0  0  0  0  0
    0.8008    2.3084   -4.8462 N   0  3  0  0  0  0  0  0  0  0  0  0
   -0.3395    2.9035   -5.2459 F   0  0  0  0  0  0  0  0  0  0  0  0
    1.4587    2.8409   -3.8498 N   0  0  0  0  0  0  0  0  0  0  0  0
    2.6083    2.2979   -3.4622 C   0  0  0  0  0  0  0  0  0  0  0  0
    3.1392    1.1632   -4.0893 C   0  0  0  0  0  0  0  0  0  0  0  0
    4.4052    0.6909   -3.6595 C   0  0  0  0  0  0  0  0  0  0  0  0
    5.1044    1.3295   -2.6215 C   0  0  0  0  0  0  0  0  0  0  0  0
    6.4211    0.8403   -2.2155 C   0  0  0  0  0  0  0  0  0  0  0  0
    6.8614   -0.2140   -2.6445 O   0  0  0  0  0  0  0  0  0  0  0  0
    7.2187    1.7126   -1.2800 C   0  0  0  0  0  0  0  0  0  0  0  0
    8.4383    1.6294   -1.2598 O   0  0  0  0  0  0  0  0  0  0  0  0
    6.4018    2.6632   -0.4315 C   0  0  1  0  0  0  0  0  0  0  0  0
    5.1870    3.1591   -1.0075 O   0  0  0  0  0  0  0  0  0  0  0  0
    4.5746    2.4470   -2.0034 C   0  0  0  0  0  0  0  0  0  0  0  0
    3.3060    2.9151   -2.4041 C   0  0  0  0  0  0  0  0  0  0  0  0
    2.8546    4.1599   -1.8857 N   0  0  0  0  0  0  0  0  0  0  0  0
    6.1867    2.1243    0.9614 C   0  0  1  0  0  0  0  0  0  0  0  0
    7.3638    1.8755    1.7481 O   0  0  0  0  0  0  0  0  0  0  0  0
    5.0978    2.6976    1.7021 O   0  0  0  0  0  0  0  0  0  0  0  0
    4.9765    1.4067    1.3304 C   0  0  0  0  0  0  0  0  0  0  0  0
    4.1354    0.8610    0.6613 O   0  0  0  0  0  0  0  0  0  0  0  0
    3.9961   -3.7613   -2.6755 C   0  0  0  0  0  0  0  0  0  0  0  0
    3.2402   -3.3813   -1.7967 O   0  0  0  0  0  0  0  0  0  0  0  0
    4.9459   -4.9125   -2.4818 C   0  0  0  0  0  0  0  0  0  0  0  0
    4.5932   -5.8879   -1.8395 O   0  0  0  0  0  0  0  0  0  0  0  0
    6.2665   -4.8933   -3.2241 C   0  0  0  0  0  0  0  0  0  0  0  0
    7.1390   -5.7145   -2.9955 O   0  0  0  0  0  0  0  0  0  0  0  0
  1  2  1  0  0  0  0
  2  3  2  0  0  0  0
  3  4  1  0  0  0  0
  3 52  1  0  0  0  0
  4  5  1  0  0  0  0
  5  6  1  1  0  0  0
  5 48  1  0  0  0  0
  6  7  1  0  0  0  0
  7  8  2  0  0  0  0
  7 12  1  0  0  0  0
  8  9  1  0  0  0  0
  8 25  1  0  0  0  0
  9 10  1  0  0  0  0
 10 11  2  0  0  0  0
 10 21  1  0  0  0  0
 11 12  1  0  0  0  0
 11 13  1  0  0  0  0
 13 14  2  0  0  0  0
 13 19  1  0  0  0  0
 14 15  1  0  0  0  0
 15 16  2  0  0  0  0
 15 17  1  0  0  0  0
 17 18  2  0  0  0  0
 18 19  1  0  0  0  0
 19 20  2  0  0  0  0
 20 21  1  0  0  0  0
 20 22  1  0  0  0  0
 22 23  1  0  0  0  0
 22 24  1  0  0  0  0
 23 24  1  0  0  0  0
 25 26  2  0  0  0  0
 25 31  1  0  0  0  0
 26 27  1  0  0  0  0
 27 28  1  0  0  0  0
 27 29  2  0  0  0  0
 29 30  1  0  0  0  0
 30 31  2  0  0  0  0
 30 41  1  0  0  0  0
 31 32  1  0  0  0  0
 32 33  2  0  0  0  0
 33 34  1  0  0  0  0
 33 40  1  0  0  0  0
 34 35  2  0  0  0  0
 34 36  1  0  0  0  0
 36 37  2  0  0  0  0
 38 36  1  6  0  0  0
 38 39  1  0  0  0  0
 38 43  1  0  0  0  0
 39 40  1  0  0  0  0
 40 41  2  0  0  0  0
 41 42  1  0  0  0  0
 43 44  1  1  0  0  0
 43 45  1  0  0  0  0
 43 46  1  0  0  0  0
 45 46  1  0  0  0  0
 46 47  2  0  0  0  0
 48 49  2  0  0  0  0
 48 50  1  0  0  0  0
 50 51  2  0  0  0  0
 50 52  1  0  0  0  0
 52 53  2  0  0  0  0
M  CHG  1  27   1
M  END
$$$$