
 OpenBabel09252006033D

 54 62  0  0  1  0  0  0  0  0999 V2000
    3.1297    2.2208   -1.7196 C   0  0  0  0  0  0  0  0  0  0  0  0
    4.3501    2.6980   -1.0061 C   0  0  0  0  0  0  0  0  0  0  0  0
    4.4771    3.6865   -0.1058 C   0  0  0  0  0  0  0  0  0  0  0  0
    3.4719    4.6034    0.5044 C   0  0  0  0  0  0  0  0  0  0  0  0
    3.8589    5.9554    0.6513 C   0  0  0  0  0  0  0  0  0  0  0  0
    5.0246    6.3524    0.0352 O   0  0  0  0  0  0  0  0  0  0  0  0
    5.1518    7.7493   -0.2603 C   0  0  2  0  0  0  0  0  0  0  0  0
    4.8071    8.6152    0.9211 C   0  0  0  0  0  0  0  0  0  0  0  0
    5.4627    9.5781    1.2918 O   0  0  0  0  0  0  0  0  0  0  0  0
    3.5364    8.2032    1.6300 C   0  0  0  0  0  0  0  0  0  0  0  0
    2.9343    8.9734    2.3610 O   0  0  0  0  0  0  0  0  0  0  0  0
    3.0744    6.8250    1.4025 C   0  0  0  0  0  0  0  0  0  0  0  0
    1.8644    6.3921    1.9480 C   0  0  0  0  0  0  0  0  0  0  0  0
    1.4173    5.0672    1.7385 C   0  0  0  0  0  0  0  0  0  0  0  0
    2.2366    4.1560    1.0346 C   0  0  0  0  0  0  0  0  0  0  0  0
    1.8554    2.8777    0.8855 N   0  0  0  0  0  0  0  0  0  0  0  0
    0.6637    2.4982    1.3516 C   0  0  0  0  0  0  0  0  0  0  0  0
   -0.1881    3.2702    2.0160 N   0  0  0  0  0  0  0  0  0  0  0  0
    0.1981    4.5474    2.2167 C   0  0  0  0  0  0  0  0  0  0  0  0
   -0.7386    5.2666    3.1052 C   0  0  0  0  0  0  0  0  0  0  0  0
   -1.8133    5.9758    2.6893 C   0  0  0  0  0  0  0  0  0  0  0  0
   -2.0750    6.1792    1.3393 O   0  0  0  0  0  0  0  0  0  0  0  0
   -2.7651    7.3949    0.9899 C   0  0  1  0  0  0  0  0  0  0  0  0
   -1.9619    8.5213    1.3392 O   0  0  0  0  0  0  0  0  0  0  0  0
   -2.4792    9.7295    0.9149 C   0  0  0  0  0  0  0  0  0  0  0  0
   -2.4911   10.7940    1.7250 C   0  0  0  0  0  0  0  0  0  0  0  0
   -2.0427   10.7867    3.0204 O   0  0  0  0  0  0  0  0  0  0  0  0
   -2.9905    9.8840   -0.4724 C   0  0  0  0  0  0  0  0  0  0  0  0
   -3.3818   10.9303   -0.9586 O   0  0  0  0  0  0  0  0  0  0  0  0
   -3.0168    8.5855   -1.2423 C   0  0  0  0  0  0  0  0  0  0  0  0
   -2.9250    8.5847   -2.4597 O   0  0  0  0  0  0  0  0  0  0  0  0
   -3.1419    7.2888   -0.4852 C   0  0  0  0  0  0  0  0  0  0  0  0
   -3.5949    6.2911   -1.0298 O   0  0  0  0  0  0  0  0  0  0  0  0
   -2.8518    6.4316    3.6959 C   0  0  0  0  0  0  0  0  0  0  0  0
   -2.5607    5.9691    5.0821 C   0  0  0  0  0  0  0  0  0  0  0  0
   -1.4431    5.3017    5.4013 C   0  0  0  0  0  0  0  0  0  0  0  0
   -0.4909    4.9859    4.4482 O   0  0  0  0  0  0  0  0  0  0  0  0
   -1.1895    4.8904    6.6846 N   0  0  0  0  0  0  0  0  0  0  0  0
   -2.0704    5.0751    7.7414 C   0  0  0  0  0  0  0  0  0  0  0  0
   -1.6192    4.5285    9.0424 C   0  0  0  0  0  0  0  0  0  0  0  0
   -2.4932    3.8614    9.9659 O   0  0  0  0  0  0  0  0  0  0  0  0
   -1.4982    3.1100    9.2489 O   0  0  0  0  0  0  0  0  0  0  0  0
   -3.2288    5.7309    7.5232 C   0  0  0  0  0  0  0  0  0  0  0  0
   -3.5484    6.2330    6.1655 C   0  0  0  0  0  0  0  0  0  0  0  0
   -4.6398    6.8782    5.9133 N   0  0  0  0  0  0  0  0  0  0  0  0
   -5.5389    7.1055    6.9378 C   0  0  0  0  0  0  0  0  0  0  0  0
   -6.5590    7.7304    6.6781 O   0  0  0  0  0  0  0  0  0  0  0  0
   -5.3437    6.6717    8.2334 N   0  0  0  0  0  0  0  0  0  0  0  0
   -4.2643    6.0269    8.5141 C   0  0  0  0  0  0  0  0  0  0  0  0
    4.3654    8.1309   -1.4766 C   0  0  1  0  0  0  0  0  0  0  0  0
    2.9296    7.9292   -1.4231 O   0  0  0  0  0  0  0  0  0  0  0  0
    4.7884    9.3515   -2.0877 O   0  0  0  0  0  0  0  0  0  0  0  0
    4.9322    8.2299   -2.8248 C   0  0  0  0  0  0  0  0  0  0  0  0
    4.4447    7.9403   -3.8884 O   0  0  0  0  0  0  0  0  0  0  0  0
  1  2  1  0  0  0  0
  2  3  2  0  0  0  0
  3  4  1  0  0  0  0
  4  5  2  0  0  0  0
  4 15  1  0  0  0  0
  5  6  1  0  0  0  0
  5 12  1  0  0  0  0
  7  6  1  1  0  0  0
  7  8  1  0  0  0  0
  7 50  1  0  0  0  0
  8  9  2  0  0  0  0
  8 10  1  0  0  0  0
 10 11  2  0  0  0  0
 10 12  1  0  0  0  0
 12 13  2  0  0  0  0
 13 14  1  0  0  0  0
 14 15  2  0  0  0  0
 14 19  1  0  0  0  0
 15 16  1  0  0  0  0
 16 17  2  0  0  0  0
 17 18  1  0  0  0  0
 18 19  2  0  0  0  0
 19 20  1  0  0  0  0
 20 21  2  0  0  0  0
 20 37  1  0  0  0  0
 21 22  1  0  0  0  0
 21 34  1  0  0  0  0
 23 22  1  6  0  0  0
 23 24  1  0  0  0  0
 23 32  1  0  0  0  0
 24 25  1  0  0  0  0
 25 26  2  0  0  0  0
 25 28  1  0  0  0  0
 26 27  1  0  0  0  0
 28 29  2  0  0  0  0
 28 30  1  0  0  0  0
 30 31  2  0  0  0  0
 30 32  1  0  0  0  0
 32 33  2  0  0  0  0
 34 35  1  0  0  0  0
 35 36  2  0  0  0  0
 35 44  1  0  0  0  0
 36 37  1  0  0  0  0
 36 38  1  0  0  0  0
 38 39  1  0  0  0  0
 39 40  1  0  0  0  0
 39 43  2  0  0  0  0
 40 41  1  0  0  0  0
 40 42  1  0  0  0  0
 41 42  1  0  0  0  0
 43 44  1  0  0  0  0
 43 49  1  0  0  0  0
 44 45  2  0  0  0  0
 45 46  1  0  0  0  0
 46 47  2  0  0  0  0
 46 48  1  0  0  0  0
 48 49  2  0  0  0  0
 50 51  1  1  0  0  0
 50 52  1  0  0  0  0
 50 53  1  0  0  0  0
 52 53  1  0  0  0  0
 53 54  2  0  0  0  0
M  END
$$$$