
 OpenBabel09202008573D

 46 52  0  0  1  0  0  0  0  0999 V2000
    6.4291   -9.0418  -10.6004 O   0  0  0  0  0  0  0  0  0  0  0  0
    6.8859   -7.7187  -10.8891 C   0  0  0  0  0  0  0  0  0  0  0  0
    7.9243   -7.2689   -9.8423 C   0  0  2  0  0  0  0  0  0  0  0  0
    7.3524   -7.1845   -8.5194 O   0  0  0  0  0  0  0  0  0  0  0  0
    6.6772   -6.0340   -8.2170 C   0  0  0  0  0  0  0  0  0  0  0  0
    5.8520   -6.0879   -7.0940 C   0  0  0  0  0  0  0  0  0  0  0  0
    5.0169   -5.0083   -6.7584 C   0  0  0  0  0  0  0  0  0  0  0  0
    4.1494   -5.0919   -5.6664 C   0  0  0  0  0  0  0  0  0  0  0  0
    3.2879   -4.0388   -5.4178 C   0  0  0  0  0  0  0  0  0  0  0  0
    3.2285   -2.9203   -6.1690 N   0  0  0  0  0  0  0  0  0  0  0  0
    4.0835   -2.8309   -7.2234 C   0  0  0  0  0  0  0  0  0  0  0  0
    5.0211   -3.8406   -7.5535 C   0  0  0  0  0  0  0  0  0  0  0  0
    5.9418   -3.7743   -8.6264 C   0  0  0  0  0  0  0  0  0  0  0  0
    6.7709   -4.8598   -8.9596 C   0  0  0  0  0  0  0  0  0  0  0  0
    7.6787   -4.7836  -10.1512 C   0  0  2  0  0  0  0  0  0  0  0  0
    8.6480   -5.9708  -10.2057 C   0  0  2  0  0  0  0  0  0  0  0  0
    9.2503   -6.0425  -11.5030 O   0  0  0  0  0  0  0  0  0  0  0  0
    8.4599   -3.5814  -10.1506 O   0  0  0  0  0  0  0  0  0  0  0  0
    3.9230   -1.6016   -8.0284 C   0  0  0  0  0  0  0  0  0  0  0  0
    3.1203   -1.5399   -9.1161 C   0  0  0  0  0  0  0  0  0  0  0  0
    2.4078   -2.6489   -9.5813 O   0  0  0  0  0  0  0  0  0  0  0  0
    1.5613   -2.4518  -10.7355 C   0  0  1  0  0  0  0  0  0  0  0  0
    2.3580   -2.1423  -11.8986 O   0  0  0  0  0  0  0  0  0  0  0  0
    1.6039   -2.2124  -13.1184 C   0  0  1  0  0  0  0  0  0  0  0  0
    2.4371   -1.5986  -14.2476 C   0  0  0  0  0  0  0  0  0  0  0  0
    2.6589   -0.2107  -13.9793 O   0  0  0  0  0  0  0  0  0  0  0  0
    1.2432   -3.6763  -13.4199 C   0  0  3  0  0  0  0  0  0  0  0  0
    1.2908   -4.5181  -12.1265 C   0  0  3  0  0  0  0  0  0  0  0  0
    0.6832   -3.7106  -10.9695 C   0  0  3  0  0  0  0  0  0  0  0  0
   -0.6528   -3.3033  -11.3780 O   0  0  0  0  0  0  0  0  0  0  0  0
    0.5810   -5.7459  -12.3190 O   0  0  0  0  0  0  0  0  0  0  0  0
   -0.0835   -3.7297  -13.9763 O   0  0  0  0  0  0  0  0  0  0  0  0
    2.9868   -0.2432   -9.8515 C   0  0  0  0  0  0  0  0  0  0  0  0
    3.8153    0.8718   -9.3206 C   0  0  0  0  0  0  0  0  0  0  0  0
    4.6047    0.6908   -8.1979 C   0  0  0  0  0  0  0  0  0  0  0  0
    4.6669   -0.5245   -7.5437 O   0  0  0  0  0  0  0  0  0  0  0  0
    5.3601    1.6777   -7.6737 N   0  0  0  0  0  0  0  0  0  0  0  0
    5.2943    2.8632   -8.3023 C   0  0  0  0  0  0  0  0  0  0  0  0
    6.0539    3.8280   -7.7237 O   0  0  0  0  0  0  0  0  0  0  0  0
    4.5338    3.1370   -9.4419 C   0  0  0  0  0  0  0  0  0  0  0  0
    3.7781    2.1017   -9.9704 C   0  0  0  0  0  0  0  0  0  0  0  0
    3.0226    2.2599  -11.0726 N   0  0  0  0  0  0  0  0  0  0  0  0
    3.0223    3.4728  -11.6329 C   0  0  0  0  0  0  0  0  0  0  0  0
    3.6909    4.5463  -11.2130 N   0  0  0  0  0  0  0  0  0  0  0  0
    4.4435    4.3527  -10.1164 C   0  0  0  0  0  0  0  0  0  0  0  0
    2.2452    3.5945  -12.7357 O   0  0  0  0  0  0  0  0  0  0  0  0
  1  2  1  0  0  0  0
  3  4  1  0  0  0  0
  3 16  1  0  0  0  0
  3  2  1  6  0  0  0
  4  5  1  0  0  0  0
  5  6  2  0  0  0  0
  5 14  1  0  0  0  0
  6  7  1  0  0  0  0
  7  8  2  0  0  0  0
  7 12  1  0  0  0  0
  8  9  1  0  0  0  0
  9 10  2  0  0  0  0
 10 11  1  0  0  0  0
 11 12  2  0  0  0  0
 11 19  1  0  0  0  0
 12 13  1  0  0  0  0
 13 14  2  0  0  0  0
 14 15  1  0  0  0  0
 15 16  1  0  0  0  0
 15 18  1  1  0  0  0
 16 17  1  6  0  0  0
 19 20  2  0  0  0  0
 19 36  1  0  0  0  0
 20 21  1  0  0  0  0
 20 33  1  0  0  0  0
 22 21  1  1  0  0  0
 22 23  1  0  0  0  0
 22 29  1  0  0  0  0
 23 24  1  0  0  0  0
 24 27  1  0  0  0  0
 24 25  1  6  0  0  0
 25 26  1  0  0  0  0
 27 28  1  0  0  0  0
 27 32  1  0  0  0  0
 28 29  1  0  0  0  0
 28 31  1  0  0  0  0
 29 30  1  0  0  0  0
 33 34  1  0  0  0  0
 34 35  2  0  0  0  0
 34 41  1  0  0  0  0
 35 36  1  0  0  0  0
 35 37  1  0  0  0  0
 37 38  2  0  0  0  0
 38 39  1  0  0  0  0
 38 40  1  0  0  0  0
 40 41  2  0  0  0  0
 40 45  1  0  0  0  0
 41 42  1  0  0  0  0
 42 43  2  0  0  0  0
 43 44  1  0  0  0  0
 43 46  1  0  0  0  0
 44 45  2  0  0  0  0
M  END
$$$$