
 OpenBabel09212005073D

 46 52  0  0  1  0  0  0  0  0999 V2000
    8.8206    5.9039    9.7006 O   0  0  0  0  0  0  0  0  0  0  0  0
    8.5698    5.2356   10.9360 C   0  0  0  0  0  0  0  0  0  0  0  0
    7.1157    4.7475   11.0126 C   0  0  2  0  0  0  0  0  0  0  0  0
    6.8161    3.8038    9.9836 O   0  0  0  0  0  0  0  0  0  0  0  0
    6.4390    4.3368    8.7814 C   0  0  0  0  0  0  0  0  0  0  0  0
    6.6165    3.5270    7.6620 C   0  0  0  0  0  0  0  0  0  0  0  0
    6.3449    4.0110    6.3646 C   0  0  0  0  0  0  0  0  0  0  0  0
    6.5609    3.1911    5.2574 C   0  0  0  0  0  0  0  0  0  0  0  0
    6.3269    3.7009    3.9931 C   0  0  0  0  0  0  0  0  0  0  0  0
    5.9171    4.9621    3.7476 N   0  0  0  0  0  0  0  0  0  0  0  0
    5.7045    5.7722    4.8172 C   0  0  0  0  0  0  0  0  0  0  0  0
    5.8641    5.3311    6.1658 C   0  0  0  0  0  0  0  0  0  0  0  0
    5.5873    6.0916    7.3284 C   0  0  0  0  0  0  0  0  0  0  0  0
    5.8987    5.6053    8.6116 C   0  0  0  0  0  0  0  0  0  0  0  0
    5.6835    6.4550    9.7897 C   0  0  0  0  0  0  0  0  0  0  0  0
    5.1245    7.5413    9.7123 O   0  0  0  0  0  0  0  0  0  0  0  0
    6.1911    5.9358   11.1137 C   0  0  0  0  0  0  0  0  0  0  0  0
    5.9052    6.4893   12.1691 O   0  0  0  0  0  0  0  0  0  0  0  0
    5.2838    7.1472    4.4427 C   0  0  0  0  0  0  0  0  0  0  0  0
    6.1336    8.1805    4.2285 C   0  0  0  0  0  0  0  0  0  0  0  0
    7.5085    8.0153    4.3148 O   0  0  0  0  0  0  0  0  0  0  0  0
    8.3428    8.8569    3.5046 C   0  0  1  0  0  0  0  0  0  0  0  0
    8.5371   10.1263    4.1301 O   0  0  0  0  0  0  0  0  0  0  0  0
    9.3213   11.0459    3.3649 C   0  0  1  0  0  0  0  0  0  0  0  0
    9.7005   12.2400    4.2451 C   0  0  0  0  0  0  0  0  0  0  0  0
   10.4705   11.7846    5.3565 O   0  0  0  0  0  0  0  0  0  0  0  0
   10.6003   10.4614    2.7995 C   0  0  0  0  0  0  0  0  0  0  0  0
   11.3119   11.0123    1.9798 O   0  0  0  0  0  0  0  0  0  0  0  0
   10.8549    9.0388    3.2340 C   0  0  0  0  0  0  0  0  0  0  0  0
   11.9824    8.6459    3.4478 O   0  0  0  0  0  0  0  0  0  0  0  0
    9.6653    8.1152    3.3267 C   0  0  0  0  0  0  0  0  0  0  0  0
    9.8001    6.9165    3.1520 O   0  0  0  0  0  0  0  0  0  0  0  0
    5.5918    9.5715    3.9662 C   0  0  0  0  0  0  0  0  0  0  0  0
    4.1041    9.6126    3.7753 C   0  0  0  0  0  0  0  0  0  0  0  0
    3.3815    8.4865    3.8824 C   0  0  0  0  0  0  0  0  0  0  0  0
    3.9057    7.2683    4.2685 O   0  0  0  0  0  0  0  0  0  0  0  0
    2.0526    8.4937    3.5797 N   0  0  0  0  0  0  0  0  0  0  0  0
    1.3584    9.6036    3.1540 C   0  0  0  0  0  0  0  0  0  0  0  0
    0.1795    9.5088    2.8338 O   0  0  0  0  0  0  0  0  0  0  0  0
    2.1298   10.8804    3.1241 C   0  0  0  0  0  0  0  0  0  0  0  0
    3.4480   10.8701    3.4180 C   0  0  0  0  0  0  0  0  0  0  0  0
    4.2158   12.0316    3.4219 N   0  0  0  0  0  0  0  0  0  0  0  0
    3.7132   13.2462    2.8333 C   0  0  0  0  0  0  0  0  0  0  0  0
    2.3107   13.3079    3.0591 N   0  0  0  0  0  0  0  0  0  0  0  0
    1.5035   12.2093    2.9001 C   0  0  0  0  0  0  0  0  0  0  0  0
    0.3162   12.3800    2.6508 O   0  0  0  0  0  0  0  0  0  0  0  0
  1  2  1  0  0  0  0
  3  4  1  0  0  0  0
  3 17  1  0  0  0  0
  3  2  1  6  0  0  0
  4  5  1  0  0  0  0
  5  6  2  0  0  0  0
  5 14  1  0  0  0  0
  6  7  1  0  0  0  0
  7  8  2  0  0  0  0
  7 12  1  0  0  0  0
  8  9  1  0  0  0  0
  9 10  2  0  0  0  0
 10 11  1  0  0  0  0
 11 12  2  0  0  0  0
 11 19  1  0  0  0  0
 12 13  1  0  0  0  0
 13 14  2  0  0  0  0
 14 15  1  0  0  0  0
 15 16  2  0  0  0  0
 15 17  1  0  0  0  0
 17 18  2  0  0  0  0
 19 20  2  0  0  0  0
 19 36  1  0  0  0  0
 20 21  1  0  0  0  0
 20 33  1  0  0  0  0
 22 21  1  1  0  0  0
 22 23  1  0  0  0  0
 22 31  1  0  0  0  0
 23 24  1  0  0  0  0
 24 27  1  0  0  0  0
 24 25  1  1  0  0  0
 25 26  1  0  0  0  0
 27 28  2  0  0  0  0
 27 29  1  0  0  0  0
 29 30  2  0  0  0  0
 29 31  1  0  0  0  0
 31 32  2  0  0  0  0
 33 34  1  0  0  0  0
 34 35  2  0  0  0  0
 34 41  1  0  0  0  0
 35 36  1  0  0  0  0
 35 37  1  0  0  0  0
 37 38  1  0  0  0  0
 38 39  2  0  0  0  0
 38 40  1  0  0  0  0
 40 41  2  0  0  0  0
 40 45  1  0  0  0  0
 41 42  1  0  0  0  0
 42 43  1  0  0  0  0
 43 44  1  0  0  0  0
 44 45  1  0  0  0  0
 45 46  2  0  0  0  0
M  END
$$$$