
 OpenBabel09242005433D

 49 57  0  0  1  0  0  0  0  0999 V2000
    8.3885   -0.4305   -2.3017 O   0  0  0  0  0  0  0  0  0  0  0  0
    7.6472    0.4188   -2.7799 C   0  0  0  0  0  0  0  0  0  0  0  0
    6.2639    0.6634   -2.2998 C   0  0  0  0  0  0  0  0  0  0  0  0
    5.6626    1.8492   -2.6746 O   0  0  0  0  0  0  0  0  0  0  0  0
    4.3161    2.0513   -2.3845 C   0  0  0  0  0  0  0  0  0  0  0  0
    3.6095    1.1674   -1.6700 C   0  0  0  0  0  0  0  0  0  0  0  0
    4.2658   -0.0539   -1.1713 C   0  0  0  0  0  0  0  0  0  0  0  0
    3.6647   -0.8562   -0.4700 O   0  0  0  0  0  0  0  0  0  0  0  0
    5.6616   -0.2814   -1.5703 C   0  0  0  0  0  0  0  0  0  0  0  0
    3.6834    3.2212   -2.8170 O   0  0  0  0  0  0  0  0  0  0  0  0
    4.1264    3.8846   -3.9594 C   0  0  0  0  0  0  0  0  0  0  0  0
    4.0699    5.2267   -4.0794 C   0  0  0  0  0  0  0  0  0  0  0  0
    4.4654    5.9154   -5.2227 O   0  0  0  0  0  0  0  0  0  0  0  0
    5.0410    5.2144   -6.2634 C   0  0  0  0  0  0  0  0  0  0  0  0
    5.0987    3.8343   -6.2730 C   0  0  0  0  0  0  0  0  0  0  0  0
    4.5205    3.0504   -5.1417 C   0  0  0  0  0  0  0  0  0  0  0  0
    5.7160    3.2256   -7.3663 C   0  0  0  0  0  0  0  0  0  0  0  0
    5.8142    1.8290   -7.4466 N   0  0  0  0  0  0  0  0  0  0  0  0
    6.5437    1.1584   -8.3756 C   0  0  0  0  0  0  0  0  0  0  0  0
    6.6540   -0.0619   -8.3391 O   0  0  0  0  0  0  0  0  0  0  0  0
    7.1744    1.9057   -9.3126 N   0  0  0  0  0  0  0  0  0  0  0  0
    6.8436    3.2831   -9.5839 C   0  0  0  0  0  0  0  0  0  0  0  0
    6.2544    3.9919   -8.4008 C   0  0  0  0  0  0  0  0  0  0  0  0
    6.1297    5.3864   -8.3350 C   0  0  0  0  0  0  0  0  0  0  0  0
    5.5221    5.9786   -7.2673 N   0  0  0  0  0  0  0  0  0  0  0  0
    6.6062    6.2831   -9.4550 C   0  0  0  0  0  0  0  0  0  0  0  0
    7.1172    7.5812   -9.1131 O   0  0  0  0  0  0  0  0  0  0  0  0
    8.0147    6.5423   -9.5521 O   0  0  0  0  0  0  0  0  0  0  0  0
    3.5359    6.1076   -3.0204 C   0  0  0  0  0  0  0  0  0  0  0  0
    4.4614    6.5247   -2.1179 N   0  0  0  0  0  0  0  0  0  0  0  0
    4.0465    7.3604   -1.1450 C   0  0  0  0  0  0  0  0  0  0  0  0
    2.7464    7.8151   -1.0206 C   0  0  0  0  0  0  0  0  0  0  0  0
    1.7927    7.3935   -1.9490 C   0  0  0  0  0  0  0  0  0  0  0  0
    2.1722    6.5032   -2.9810 C   0  0  0  0  0  0  0  0  0  0  0  0
    1.1661    6.0785   -3.8842 C   0  0  0  0  0  0  0  0  0  0  0  0
   -0.1522    6.5471   -3.7727 C   0  0  0  0  0  0  0  0  0  0  0  0
   -0.4988    7.4596   -2.7841 C   0  0  0  0  0  0  0  0  0  0  0  0
    0.4675    7.8594   -1.8626 C   0  0  0  0  0  0  0  0  0  0  0  0
   -1.7392    8.0116   -2.6212 O   0  0  0  0  0  0  0  0  0  0  0  0
   -2.6488    7.8878   -3.7199 C   0  0  2  0  0  0  0  0  0  0  0  0
   -2.5920    6.5645   -4.4422 C   0  0  0  0  0  0  0  0  0  0  0  0
   -3.5733    5.9466   -4.8309 O   0  0  0  0  0  0  0  0  0  0  0  0
   -1.1920    6.0501   -4.6832 C   0  0  0  0  0  0  0  0  0  0  0  0
   -0.9570    5.2396   -5.5650 O   0  0  0  0  0  0  0  0  0  0  0  0
   -2.4901    9.0278   -4.6761 C   0  0  1  0  0  0  0  0  0  0  0  0
   -1.1934    9.1745   -5.3024 O   0  0  0  0  0  0  0  0  0  0  0  0
   -3.6144    9.2338   -5.5356 O   0  0  0  0  0  0  0  0  0  0  0  0
   -3.3306   10.2252   -4.6689 C   0  0  0  0  0  0  0  0  0  0  0  0
   -3.0495   11.3810   -4.8846 O   0  0  0  0  0  0  0  0  0  0  0  0
  1  2  2  0  0  0  0
  2  3  1  0  0  0  0
  3  4  1  0  0  0  0
  3  9  2  0  0  0  0
  4  5  1  0  0  0  0
  5  6  2  0  0  0  0
  5 10  1  0  0  0  0
  6  7  1  0  0  0  0
  7  8  2  0  0  0  0
  7  9  1  0  0  0  0
 10 11  1  0  0  0  0
 11 12  2  0  0  0  0
 11 16  1  0  0  0  0
 12 13  1  0  0  0  0
 12 29  1  0  0  0  0
 13 14  1  0  0  0  0
 14 15  2  0  0  0  0
 14 25  1  0  0  0  0
 15 16  1  0  0  0  0
 15 17  1  0  0  0  0
 17 18  1  0  0  0  0
 17 23  2  0  0  0  0
 18 19  1  0  0  0  0
 19 20  2  0  0  0  0
 19 21  1  0  0  0  0
 21 22  1  0  0  0  0
 22 23  1  0  0  0  0
 23 24  1  0  0  0  0
 24 25  2  0  0  0  0
 24 26  1  0  0  0  0
 26 27  1  0  0  0  0
 26 28  1  0  0  0  0
 27 28  1  0  0  0  0
 29 30  2  0  0  0  0
 29 34  1  0  0  0  0
 30 31  1  0  0  0  0
 31 32  2  0  0  0  0
 32 33  1  0  0  0  0
 33 34  2  0  0  0  0
 33 38  1  0  0  0  0
 34 35  1  0  0  0  0
 35 36  2  0  0  0  0
 36 37  1  0  0  0  0
 36 43  1  0  0  0  0
 37 38  2  0  0  0  0
 37 39  1  0  0  0  0
 40 39  1  1  0  0  0
 40 41  1  0  0  0  0
 40 45  1  0  0  0  0
 41 42  2  0  0  0  0
 41 43  1  0  0  0  0
 43 44  2  0  0  0  0
 45 46  1  6  0  0  0
 45 47  1  0  0  0  0
 45 48  1  0  0  0  0
 47 48  1  0  0  0  0
 48 49  2  0  0  0  0
M  END
$$$$