
 OpenBabel11212001143D

 52 60  0  0  1  0  0  0  0  0999 V2000
   -1.3577   -0.4828   -4.1151 O   0  0  0  0  0  0  0  0  0  0  0  0
   -0.7473    0.0861   -3.0258 C   0  0  0  0  0  0  0  0  0  0  0  0
    0.3341   -0.4482   -2.4453 C   0  0  0  0  0  0  0  0  0  0  0  0
    0.8539   -1.6427   -2.9138 O   0  0  0  0  0  0  0  0  0  0  0  0
    2.2443   -1.8376   -2.6794 C   0  0  2  0  0  0  0  0  0  0  0  0
    2.6714   -3.1121   -3.1749 O   0  0  0  0  0  0  0  0  0  0  0  0
    2.5059   -3.3579   -4.5286 C   0  0  0  0  0  0  0  0  0  0  0  0
    2.2517   -4.6059   -4.9670 C   0  0  0  0  0  0  0  0  0  0  0  0
    2.1605   -4.9396   -6.3118 O   0  0  0  0  0  0  0  0  0  0  0  0
    2.4668   -3.9830   -7.2720 C   0  0  0  0  0  0  0  0  0  0  0  0
    2.7581   -2.7106   -6.9375 C   0  0  0  0  0  0  0  0  0  0  0  0
    2.7319   -2.2375   -5.5085 C   0  0  0  0  0  0  0  0  0  0  0  0
    3.1382   -1.6879   -7.9719 C   0  0  3  0  0  0  0  0  0  0  0  0
    4.4788   -1.3042   -7.7143 O   0  0  0  0  0  0  0  0  0  0  0  0
    5.0429   -0.4078   -8.5672 C   0  0  0  0  0  0  0  0  0  0  0  0
    6.0692    0.1900   -8.2825 O   0  0  0  0  0  0  0  0  0  0  0  0
    4.3813   -0.2082   -9.7312 O   0  0  0  0  0  0  0  0  0  0  0  0
    3.5831   -1.2290  -10.3169 C   0  0  3  0  0  0  0  0  0  0  0  0
    3.1391   -2.2578   -9.3401 C   0  0  0  0  0  0  0  0  0  0  0  0
    2.8173   -3.5412   -9.6066 C   0  0  0  0  0  0  0  0  0  0  0  0
    2.4731   -4.4024   -8.5788 O   0  3  0  0  0  0  0  0  0  0  0  0
    2.8281   -4.1279  -10.9658 C   0  0  0  0  0  0  0  0  0  0  0  0
    3.9941   -4.7909  -11.4724 O   0  0  0  0  0  0  0  0  0  0  0  0
    2.8184   -5.5550  -11.1444 O   0  0  0  0  0  0  0  0  0  0  0  0
    2.3863   -0.6453  -10.7958 O   0  0  0  0  0  0  0  0  0  0  0  0
    2.0887   -5.7427   -4.0468 C   0  0  0  0  0  0  0  0  0  0  0  0
    3.2011   -6.5119   -3.7533 C   0  0  0  0  0  0  0  0  0  0  0  0
    3.1383   -7.5537   -2.9181 N   0  0  0  0  0  0  0  0  0  0  0  0
    1.9445   -7.8489   -2.2963 N   0  0  0  0  0  0  0  0  0  0  0  0
    0.8375   -7.1362   -2.4961 C   0  0  0  0  0  0  0  0  0  0  0  0
    0.8667   -6.0610   -3.4050 C   0  0  0  0  0  0  0  0  0  0  0  0
   -0.3367   -5.3551   -3.6172 C   0  0  0  0  0  0  0  0  0  0  0  0
   -1.4770   -5.7081   -2.9056 C   0  0  0  0  0  0  0  0  0  0  0  0
   -1.3978   -6.7444   -2.0055 C   0  0  0  0  0  0  0  0  0  0  0  0
   -0.2770   -7.4631   -1.8259 N   0  0  0  0  0  0  0  0  0  0  0  0
   -2.4442   -7.1454   -1.2233 O   0  0  0  0  0  0  0  0  0  0  0  0
   -3.3923   -6.1250   -0.8991 C   0  0  2  0  0  0  0  0  0  0  0  0
   -3.8409   -5.3053   -2.0871 C   0  0  0  0  0  0  0  0  0  0  0  0
   -4.9657   -4.8540   -2.2418 O   0  0  0  0  0  0  0  0  0  0  0  0
   -2.7442   -5.0066   -3.0896 C   0  0  0  0  0  0  0  0  0  0  0  0
   -2.9045   -4.2276   -4.0148 O   0  0  0  0  0  0  0  0  0  0  0  0
   -2.8794   -5.2494    0.2006 C   0  0  1  0  0  0  0  0  0  0  0  0
   -1.6901   -4.4646   -0.0903 O   0  0  0  0  0  0  0  0  0  0  0  0
   -3.8881   -4.5843    0.9538 O   0  0  0  0  0  0  0  0  0  0  0  0
   -3.1397   -5.4855    1.6205 C   0  0  0  0  0  0  0  0  0  0  0  0
   -2.3958   -5.3243    2.5667 O   0  0  0  0  0  0  0  0  0  0  0  0
    2.5252   -1.7634   -1.1917 C   0  0  0  0  0  0  0  0  0  0  0  0
    3.0401   -2.6245   -0.4984 O   0  0  0  0  0  0  0  0  0  0  0  0
    2.0869   -0.4438   -0.6213 C   0  0  0  0  0  0  0  0  0  0  0  0
    2.7204    0.0721    0.2828 O   0  0  0  0  0  0  0  0  0  0  0  0
    0.9142    0.2667   -1.2682 C   0  0  0  0  0  0  0  0  0  0  0  0
    0.5205    1.3475   -0.8674 O   0  0  0  0  0  0  0  0  0  0  0  0
  1  2  1  0  0  0  0
  2  3  2  0  0  0  0
  3  4  1  0  0  0  0
  3 51  1  0  0  0  0
  4  5  1  0  0  0  0
  5  6  1  1  0  0  0
  5 47  1  0  0  0  0
  6  7  1  0  0  0  0
  7  8  2  0  0  0  0
  7 12  1  0  0  0  0
  8  9  1  0  0  0  0
  8 26  1  0  0  0  0
  9 10  1  0  0  0  0
 10 11  2  0  0  0  0
 10 21  1  0  0  0  0
 11 12  1  0  0  0  0
 11 13  1  0  0  0  0
 13 14  1  0  0  0  0
 13 19  1  0  0  0  0
 14 15  1  0  0  0  0
 15 16  2  0  0  0  0
 15 17  1  0  0  0  0
 17 18  1  0  0  0  0
 18 19  1  0  0  0  0
 18 25  1  0  0  0  0
 19 20  2  0  0  0  0
 20 21  1  0  0  0  0
 20 22  1  0  0  0  0
 22 23  1  0  0  0  0
 22 24  1  0  0  0  0
 23 24  1  0  0  0  0
 26 27  2  0  0  0  0
 26 31  1  0  0  0  0
 27 28  1  0  0  0  0
 28 29  2  0  0  0  0
 29 30  1  0  0  0  0
 30 31  2  0  0  0  0
 30 35  1  0  0  0  0
 31 32  1  0  0  0  0
 32 33  2  0  0  0  0
 33 34  1  0  0  0  0
 33 40  1  0  0  0  0
 34 35  2  0  0  0  0
 34 36  1  0  0  0  0
 37 36  1  6  0  0  0
 37 38  1  0  0  0  0
 37 42  1  0  0  0  0
 38 39  2  0  0  0  0
 38 40  1  0  0  0  0
 40 41  2  0  0  0  0
 42 43  1  6  0  0  0
 42 44  1  0  0  0  0
 42 45  1  0  0  0  0
 44 45  1  0  0  0  0
 45 46  2  0  0  0  0
 47 48  2  0  0  0  0
 47 49  1  0  0  0  0
 49 50  2  0  0  0  0
 49 51  1  0  0  0  0
 51 52  2  0  0  0  0
M  CHG  1  21   1
M  END
$$$$