
 OpenBabel10252012303D

 94109  0  0  1  0  0  0  0  0999 V2000
    6.2395    3.9822   -1.6687 F   0  0  0  0  0  0  0  0  0  0  0  0
    5.9747    4.5422   -0.4527 C   0  0  3  0  0  0  0  0  0  0  0  0
    7.3076    5.0905    0.0825 C   0  0  0  0  0  0  0  0  0  0  0  0
    7.3219    6.6327    0.1817 C   0  0  3  0  0  0  0  0  0  0  0  0
    8.6867    7.1280    0.6611 C   0  0  0  0  0  0  0  0  0  0  0  0
    8.6882    7.4912    2.1383 C   0  0  0  0  0  0  0  0  0  0  0  0
    7.5554    8.4673    2.4788 C   0  0  3  0  0  0  0  0  0  0  0  0
    6.1963    7.8546    2.1845 C   0  0  0  0  0  0  0  0  0  0  0  0
    6.1097    7.0421    1.0198 C   0  0  0  0  0  0  0  0  0  0  0  0
    4.8901    6.4493    0.6263 C   0  0  0  0  0  0  0  0  0  0  0  0
    4.9032    5.6349   -0.6448 C   0  0  3  0  0  0  0  0  0  0  0  0
    3.5464    5.0984   -1.1795 C   0  0  3  0  0  0  0  0  0  0  0  0
    2.3310    5.6538   -0.3920 C   0  0  0  0  0  0  0  0  0  0  0  0
    2.5449    5.7594    1.1163 C   0  0  0  0  0  0  0  0  0  0  0  0
    3.7723    6.5633    1.4293 C   0  0  0  0  0  0  0  0  0  0  0  0
    3.8590    7.3428    2.5908 C   0  0  0  0  0  0  0  0  0  0  0  0
    5.0424    8.0229    3.0076 C   0  0  0  0  0  0  0  0  0  0  0  0
    4.9735    8.7850    4.3055 C   0  0  0  0  0  0  0  0  0  0  0  0
    4.1816    8.3064    5.3715 C   0  0  0  0  0  0  0  0  0  0  0  0
    4.0008    9.0041    6.5919 C   0  0  0  0  0  0  0  0  0  0  0  0
    2.9862    8.4640    7.5882 C   0  0  3  0  0  0  0  0  0  0  0  0
    1.5914    8.6115    6.9506 C   0  0  0  0  0  0  0  0  0  0  0  0
    0.4786    8.1461    7.8664 C   0  0  0  0  0  0  0  0  0  0  0  0
    0.5043    8.8989    9.1973 C   0  0  3  0  0  0  0  0  0  0  0  0
    1.8719    8.6920    9.8928 C   0  0  3  0  0  0  0  0  0  0  0  0
    3.0714    9.1179    8.9916 C   0  0  3  0  0  0  0  0  0  0  0  0
    3.2589   10.6408    8.8584 C   0  0  0  0  0  0  0  0  0  0  0  0
    4.5446   10.9957    8.0878 C   0  0  3  0  0  0  0  0  0  0  0  0
    4.6687   10.2135    6.7989 C   0  0  0  0  0  0  0  0  0  0  0  0
    5.4660   10.7066    5.7657 C   0  0  0  0  0  0  0  0  0  0  0  0
    5.5835   10.0205    4.5522 C   0  0  0  0  0  0  0  0  0  0  0  0
    6.2817   10.6467    3.6036 F   0  0  0  0  0  0  0  0  0  0  0  0
    5.7984   10.8027    8.9523 C   0  0  0  0  0  0  0  0  0  0  0  0
    1.9228    9.3577   11.2730 C   0  0  0  0  0  0  0  0  0  0  0  0
   -0.6837    8.4293   10.0406 C   0  0  0  0  0  0  0  0  0  0  0  0
    3.3513    5.4186   -2.7193 C   0  0  3  0  0  0  0  0  0  0  0  0
    3.3861    6.8643   -2.9016 O   0  0  0  0  0  0  0  0  0  0  0  0
    3.8273    7.3430   -4.1046 C   0  0  0  0  0  0  0  0  0  0  0  0
    4.8104    6.7245   -4.8261 C   0  0  0  0  0  0  0  0  0  0  0  0
    5.4186    5.4801   -4.2322 C   0  0  3  0  0  0  0  0  0  0  0  0
    4.2902    4.5990   -3.6499 C   0  0  3  0  0  0  0  0  0  0  0  0
    3.4925    3.9679   -4.7068 O   0  0  0  0  0  0  0  0  0  0  0  0
    3.0000    2.7069   -4.4168 C   0  0  0  0  0  0  0  0  0  0  0  0
    1.8028    2.3114   -5.0284 C   0  0  0  0  0  0  0  0  0  0  0  0
    1.2352    1.0565   -4.7438 C   0  0  0  0  0  0  0  0  0  0  0  0
    1.8561    0.1884   -3.8451 C   0  0  0  0  0  0  0  0  0  0  0  0
    3.0733    0.5471   -3.2784 C   0  0  0  0  0  0  0  0  0  0  0  0
    3.6460    1.7857   -3.5862 C   0  0  0  0  0  0  0  0  0  0  0  0
    3.9337   -0.5525   -2.1787 S   0  0  0  0  0  0  0  0  0  0  0  0
    6.2179    4.8013   -5.1968 O   0  0  0  0  0  0  0  0  0  0  0  0
    5.2319    7.2801   -6.0523 C   0  0  0  0  0  0  0  0  0  0  0  0
    4.6297    8.4579   -6.6026 C   0  0  0  0  0  0  0  0  0  0  0  0
    3.6637    9.1156   -5.8365 C   0  0  0  0  0  0  0  0  0  0  0  0
    3.2717    8.5435   -4.5828 C   0  0  0  0  0  0  0  0  0  0  0  0
    2.3158    9.1248   -3.8603 F   0  0  0  0  0  0  0  0  0  0  0  0
    3.0996   10.2998   -6.3826 C   0  0  0  0  0  0  0  0  0  0  0  0
    1.7527   11.1402   -5.6873 Cl  0  0  0  0  0  0  0  0  0  0  0  0
    3.5431   10.8437   -7.6121 C   0  0  0  0  0  0  0  0  0  0  0  0
    4.4758   10.2075   -8.4322 C   0  0  0  0  0  0  0  0  0  0  0  0
    4.9478    8.9588   -7.9201 C   0  0  0  0  0  0  0  0  0  0  0  0
    5.7842    7.8871   -9.0207 Cl  0  0  0  0  0  0  0  0  0  0  0  0
    4.8520   10.8072   -9.7879 C   0  0  0  0  0  0  0  0  0  0  0  0
    3.8836   11.5332  -10.5472 C   0  0  0  0  0  0  0  0  0  0  0  0
    4.0586   12.0366  -11.9129 C   0  0  0  0  0  0  0  0  0  0  0  0
    3.1234   12.7561  -12.9108 C   0  0  0  0  0  0  0  0  0  0  0  0
    3.5689   13.0216  -14.2170 C   0  0  0  0  0  0  0  0  0  0  0  0
    2.6730   13.3712  -15.2631 N   0  0  0  0  0  0  0  0  0  0  0  0
    4.8884   12.7109  -14.4919 C   0  0  0  0  0  0  0  0  0  0  0  0
    5.7323   12.1635  -13.6129 N   0  0  0  0  0  0  0  0  0  0  0  0
    5.3689   11.7931  -12.3839 N   0  3  0  0  0  0  0  0  0  0  0  0
    6.3460   11.1996  -11.6176 N   0  3  0  0  0  0  0  0  0  0  0  0
    6.1280   10.7300  -10.3650 C   0  0  0  0  0  0  0  0  0  0  0  0
    7.2174   10.3174   -9.6497 O   0  0  0  0  0  0  0  0  0  0  0  0
    7.9313   11.0081  -12.2753 Cl  0  0  0  0  0  0  0  0  0  0  0  0
    1.6131   13.2401  -12.6629 N   0  3  0  0  0  0  0  0  0  0  0  0
    1.0630   14.3981  -13.2879 N   0  3  0  0  0  0  0  0  0  0  0  0
    2.0610   15.7459  -13.7350 Cl  0  0  0  0  0  0  0  0  0  0  0  0
   -0.3033   14.6566  -13.3154 C   0  0  0  0  0  0  0  0  0  0  0  0
   -1.2555   13.9549  -12.5273 C   0  0  0  0  0  0  0  0  0  0  0  0
   -0.7090   12.9362  -11.7547 C   0  0  0  0  0  0  0  0  0  0  0  0
    0.7013   12.5087  -11.9149 C   0  0  0  0  0  0  0  0  0  0  0  0
    1.0862   11.2675  -11.3832 N   0  0  0  0  0  0  0  0  0  0  0  0
   -1.5244   12.3640  -10.8645 N   0  0  0  0  0  0  0  0  0  0  0  0
   -2.8074   12.7204  -10.6087 N   0  3  0  0  0  0  0  0  0  0  0  0
   -3.4709   13.6353  -11.3965 C   0  0  0  0  0  0  0  0  0  0  0  0
   -2.6677   14.2020  -12.4196 N   0  3  0  0  0  0  0  0  0  0  0  0
   -3.2928   14.9727  -13.3725 N   0  0  0  0  0  0  0  0  0  0  0  0
   -4.6352   15.1966  -13.3440 N   0  3  0  0  0  0  0  0  0  0  0  0
   -5.3193   15.9021  -14.4879 C   0  0  0  0  0  0  0  0  0  0  0  0
   -5.3611   14.7860  -12.2940 C   0  0  0  0  0  0  0  0  0  0  0  0
   -4.7887   14.0401  -11.3231 N   0  3  0  0  0  0  0  0  0  0  0  0
   -5.8283   13.7061   -9.9981 Cl  0  0  0  0  0  0  0  0  0  0  0  0
   -3.5019   11.8491   -9.3085 Cl  0  0  0  0  0  0  0  0  0  0  0  0
    7.7489    9.9581    1.4646 Cl  0  0  0  0  0  0  0  0  0  0  0  0
  1  2  1  0  0  0  0
  2  3  1  0  0  0  0
  2 11  1  0  0  0  0
  3  4  1  0  0  0  0
  4  5  1  0  0  0  0
  4  9  1  0  0  0  0
  5  6  1  0  0  0  0
  6  7  1  0  0  0  0
  7  8  1  0  0  0  0
  7 94  1  0  0  0  0
  8  9  2  0  0  0  0
  8 17  1  0  0  0  0
  9 10  1  0  0  0  0
 10 11  1  0  0  0  0
 10 15  2  0  0  0  0
 11 12  1  0  0  0  0
 12 13  1  0  0  0  0
 12 36  1  0  0  0  0
 13 14  1  0  0  0  0
 14 15  1  0  0  0  0
 15 16  1  0  0  0  0
 16 17  2  0  0  0  0
 17 18  1  0  0  0  0
 18 19  2  0  0  0  0
 18 31  1  0  0  0  0
 19 20  1  0  0  0  0
 20 21  1  0  0  0  0
 20 29  2  0  0  0  0
 21 22  1  0  0  0  0
 21 26  1  0  0  0  0
 22 23  1  0  0  0  0
 23 24  1  0  0  0  0
 24 25  1  0  0  0  0
 24 35  1  0  0  0  0
 25 26  1  0  0  0  0
 25 34  1  0  0  0  0
 26 27  1  0  0  0  0
 27 28  1  0  0  0  0
 28 29  1  0  0  0  0
 28 33  1  0  0  0  0
 29 30  1  0  0  0  0
 30 31  2  0  0  0  0
 31 32  1  0  0  0  0
 36 37  1  0  0  0  0
 36 41  1  0  0  0  0
 37 38  1  0  0  0  0
 38 39  2  0  0  0  0
 38 54  1  0  0  0  0
 39 40  1  0  0  0  0
 39 51  1  0  0  0  0
 40 41  1  0  0  0  0
 40 50  1  0  0  0  0
 41 42  1  0  0  0  0
 42 43  1  0  0  0  0
 43 44  2  0  0  0  0
 43 48  1  0  0  0  0
 44 45  1  0  0  0  0
 45 46  2  0  0  0  0
 46 47  1  0  0  0  0
 47 48  2  0  0  0  0
 47 49  1  0  0  0  0
 51 52  2  0  0  0  0
 52 53  1  0  0  0  0
 52 60  1  0  0  0  0
 53 54  2  0  0  0  0
 53 56  1  0  0  0  0
 54 55  1  0  0  0  0
 56 57  1  0  0  0  0
 56 58  2  0  0  0  0
 58 59  1  0  0  0  0
 59 60  2  0  0  0  0
 59 62  1  0  0  0  0
 60 61  1  0  0  0  0
 62 63  2  0  0  0  0
 62 72  1  0  0  0  0
 63 64  1  0  0  0  0
 64 65  2  0  0  0  0
 64 70  1  0  0  0  0
 65 66  1  0  0  0  0
 65 75  1  0  0  0  0
 66 67  1  0  0  0  0
 66 68  2  0  0  0  0
 68 69  1  0  0  0  0
 69 70  2  0  0  0  0
 70 71  1  0  0  0  0
 71 72  2  0  0  0  0
 71 74  1  0  0  0  0
 72 73  1  0  0  0  0
 75 76  2  0  0  0  0
 75 81  1  0  0  0  0
 76 77  1  0  0  0  0
 76 78  1  0  0  0  0
 78 79  2  0  0  0  0
 79 80  1  0  0  0  0
 79 86  1  0  0  0  0
 80 81  2  0  0  0  0
 80 83  1  0  0  0  0
 81 82  1  0  0  0  0
 83 84  2  0  0  0  0
 84 85  1  0  0  0  0
 84 93  1  0  0  0  0
 85 86  2  0  0  0  0
 85 91  1  0  0  0  0
 86 87  1  0  0  0  0
 87 88  2  0  0  0  0
 88 89  1  0  0  0  0
 88 90  1  0  0  0  0
 90 91  2  0  0  0  0
 91 92  1  0  0  0  0
M  CHG  8  70   1  71   1  75   1  76   1  84   1  86   1  88   1  91   1
M  END
$$$$