
 OpenBabel11212021023D

 54 62  0  0  1  0  0  0  0  0999 V2000
    2.2192   -5.5851   -2.5640 O   0  0  0  0  0  0  0  0  0  0  0  0
    1.9658   -4.2392   -2.4697 C   0  0  0  0  0  0  0  0  0  0  0  0
    1.4781   -3.6718   -1.3621 C   0  0  0  0  0  0  0  0  0  0  0  0
    1.1510   -4.4304   -0.2483 O   0  0  0  0  0  0  0  0  0  0  0  0
    1.6496   -3.8581    0.9571 C   0  0  2  0  0  0  0  0  0  0  0  0
    1.3215   -4.7097    2.0845 O   0  0  0  0  0  0  0  0  0  0  0  0
    1.8062   -6.0138    2.1110 C   0  0  0  0  0  0  0  0  0  0  0  0
    1.1604   -7.0034    2.7787 C   0  0  0  0  0  0  0  0  0  0  0  0
    1.6581   -8.3212    2.7831 O   0  0  0  0  0  0  0  0  0  0  0  0
    2.7094   -8.6961    1.9410 C   0  0  0  0  0  0  0  0  0  0  0  0
    3.4240   -7.7568    1.3030 C   0  0  0  0  0  0  0  0  0  0  0  0
    3.0967   -6.3016    1.3872 C   0  0  0  0  0  0  0  0  0  0  0  0
    4.5605   -8.0942    0.3904 C   0  0  3  0  0  0  0  0  0  0  0  0
    5.7369   -7.5404    0.9554 O   0  0  0  0  0  0  0  0  0  0  0  0
    6.8812   -7.7889    0.2879 C   0  0  0  0  0  0  0  0  0  0  0  0
    7.9189   -7.0804    0.5134 N   0  0  0  0  0  0  0  0  0  0  0  0
    6.8981   -8.7915   -0.6079 O   0  0  0  0  0  0  0  0  0  0  0  0
    5.8917   -9.7999   -0.6697 C   0  0  3  0  0  0  0  0  0  0  0  0
    4.7710   -9.5522    0.2772 C   0  0  0  0  0  0  0  0  0  0  0  0
    4.0195  -10.4605    0.9390 C   0  0  0  0  0  0  0  0  0  0  0  0
    2.9887  -10.0431    1.7785 O   0  3  0  0  0  0  0  0  0  0  0  0
    4.2363  -11.9235    0.8421 C   0  0  0  0  0  0  0  0  0  0  0  0
    5.1162  -12.5943    1.7540 O   0  0  0  0  0  0  0  0  0  0  0  0
    3.6940  -12.8092    1.8358 O   0  0  0  0  0  0  0  0  0  0  0  0
    5.2855   -9.7665   -1.9495 O   0  0  0  0  0  0  0  0  0  0  0  0
   -0.1381   -6.8076    3.5269 C   0  0  0  0  0  0  0  0  0  0  0  0
   -0.3985   -5.5778    4.1353 C   0  0  0  0  0  0  0  0  0  0  0  0
   -1.5633   -5.3324    4.7399 N   0  3  0  0  0  0  0  0  0  0  0  0
   -1.7619   -4.1276    5.3103 F   0  0  0  0  0  0  0  0  0  0  0  0
   -2.5361   -6.2181    4.7915 N   0  0  0  0  0  0  0  0  0  0  0  0
   -2.3763   -7.4378    4.2644 C   0  0  0  0  0  0  0  0  0  0  0  0
   -1.1587   -7.7964    3.6465 C   0  0  0  0  0  0  0  0  0  0  0  0
   -1.0468   -9.1254    3.1811 C   0  0  0  0  0  0  0  0  0  0  0  0
   -2.0831  -10.0580    3.2761 C   0  0  0  0  0  0  0  0  0  0  0  0
   -1.8266  -11.4340    2.8426 C   0  0  0  0  0  0  0  0  0  0  0  0
   -0.6969  -11.7626    2.5000 O   0  0  0  0  0  0  0  0  0  0  0  0
   -2.9956  -12.3898    2.8865 C   0  0  0  0  0  0  0  0  0  0  0  0
   -2.8076  -13.5909    2.7782 O   0  0  0  0  0  0  0  0  0  0  0  0
   -4.3476  -11.7153    3.0043 C   0  0  1  0  0  0  0  0  0  0  0  0
   -4.3759  -10.5373    3.8310 O   0  0  0  0  0  0  0  0  0  0  0  0
   -3.3058   -9.6900    3.7874 C   0  0  0  0  0  0  0  0  0  0  0  0
   -3.4290   -8.3863    4.3031 C   0  0  0  0  0  0  0  0  0  0  0  0
   -5.1025   -7.8619    5.0715 Br  0  0  0  0  0  0  0  0  0  0  0  0
   -4.9006  -11.4126    1.6479 C   0  0  1  0  0  0  0  0  0  0  0  0
   -4.0995  -10.5312    0.8117 O   0  0  0  0  0  0  0  0  0  0  0  0
   -5.5104  -12.5158    0.9837 O   0  0  0  0  0  0  0  0  0  0  0  0
   -6.3265  -11.4904    1.3088 C   0  0  0  0  0  0  0  0  0  0  0  0
   -6.9684  -10.7519    0.6036 O   0  0  0  0  0  0  0  0  0  0  0  0
    1.0472   -2.4805    1.2283 C   0  0  0  0  0  0  0  0  0  0  0  0
    0.9190   -1.9852    2.3391 O   0  0  0  0  0  0  0  0  0  0  0  0
    0.6219   -1.7615   -0.0339 C   0  0  0  0  0  0  0  0  0  0  0  0
   -0.2919   -0.9570   -0.0151 O   0  0  0  0  0  0  0  0  0  0  0  0
    1.2664   -2.1980   -1.3313 C   0  0  0  0  0  0  0  0  0  0  0  0
    1.6313   -1.4151   -2.1853 O   0  0  0  0  0  0  0  0  0  0  0  0
  1  2  1  0  0  0  0
  2  3  2  0  0  0  0
  3  4  1  0  0  0  0
  3 53  1  0  0  0  0
  4  5  1  0  0  0  0
  5  6  1  1  0  0  0
  5 49  1  0  0  0  0
  6  7  1  0  0  0  0
  7  8  2  0  0  0  0
  7 12  1  0  0  0  0
  8  9  1  0  0  0  0
  8 26  1  0  0  0  0
  9 10  1  0  0  0  0
 10 11  2  0  0  0  0
 10 21  1  0  0  0  0
 11 12  1  0  0  0  0
 11 13  1  0  0  0  0
 13 14  1  0  0  0  0
 13 19  1  0  0  0  0
 14 15  1  0  0  0  0
 15 16  2  0  0  0  0
 15 17  1  0  0  0  0
 17 18  1  0  0  0  0
 18 19  1  0  0  0  0
 18 25  1  0  0  0  0
 19 20  2  0  0  0  0
 20 21  1  0  0  0  0
 20 22  1  0  0  0  0
 22 23  1  0  0  0  0
 22 24  1  0  0  0  0
 23 24  1  0  0  0  0
 26 27  2  0  0  0  0
 26 32  1  0  0  0  0
 27 28  1  0  0  0  0
 28 29  1  0  0  0  0
 28 30  2  0  0  0  0
 30 31  1  0  0  0  0
 31 32  2  0  0  0  0
 31 42  1  0  0  0  0
 32 33  1  0  0  0  0
 33 34  2  0  0  0  0
 34 35  1  0  0  0  0
 34 41  1  0  0  0  0
 35 36  2  0  0  0  0
 35 37  1  0  0  0  0
 37 38  2  0  0  0  0
 39 37  1  6  0  0  0
 39 40  1  0  0  0  0
 39 44  1  0  0  0  0
 40 41  1  0  0  0  0
 41 42  2  0  0  0  0
 42 43  1  0  0  0  0
 44 45  1  6  0  0  0
 44 46  1  0  0  0  0
 44 47  1  0  0  0  0
 46 47  1  0  0  0  0
 47 48  2  0  0  0  0
 49 50  2  0  0  0  0
 49 51  1  0  0  0  0
 51 52  2  0  0  0  0
 51 53  1  0  0  0  0
 53 54  2  0  0  0  0
M  CHG  2  21   1  28   1
M  END
$$$$