
 OpenBabel11212014243D

 52 60  0  0  1  0  0  0  0  0999 V2000
    6.9679    2.9317    5.1241 O   0  0  0  0  0  0  0  0  0  0  0  0
    6.5614    3.5780    3.9858 C   0  0  0  0  0  0  0  0  0  0  0  0
    5.4260    3.2758    3.3459 C   0  0  0  0  0  0  0  0  0  0  0  0
    4.6098    2.2418    3.7654 O   0  0  0  0  0  0  0  0  0  0  0  0
    3.2212    2.5733    3.7184 C   0  0  2  0  0  0  0  0  0  0  0  0
    2.4244    1.5098    4.2625 O   0  0  0  0  0  0  0  0  0  0  0  0
    2.6829    1.1762    5.5875 C   0  0  0  0  0  0  0  0  0  0  0  0
    2.5067   -0.0834    6.0397 C   0  0  0  0  0  0  0  0  0  0  0  0
    2.7131   -0.4525    7.3667 O   0  0  0  0  0  0  0  0  0  0  0  0
    3.0612    0.5190    8.2936 C   0  0  0  0  0  0  0  0  0  0  0  0
    3.2166    1.8087    7.9536 C   0  0  0  0  0  0  0  0  0  0  0  0
    3.0657    2.2773    6.5463 C   0  0  0  0  0  0  0  0  0  0  0  0
    3.6003    2.8361    8.9837 C   0  0  3  0  0  0  0  0  0  0  0  0
    2.5593    3.8044    9.0453 O   0  0  0  0  0  0  0  0  0  0  0  0
    2.6789    4.8147    9.9419 C   0  0  0  0  0  0  0  0  0  0  0  0
    2.0148    5.8372    9.8472 O   0  0  0  0  0  0  0  0  0  0  0  0
    3.5950    4.6425   10.9293 O   0  0  0  0  0  0  0  0  0  0  0  0
    4.1446    3.3668   11.3056 C   0  0  0  0  0  0  0  0  0  0  0  0
    3.7820    2.2884   10.3570 C   0  0  0  0  0  0  0  0  0  0  0  0
    3.6142    0.9744   10.6305 C   0  0  0  0  0  0  0  0  0  0  0  0
    3.2490    0.1251    9.5945 N   0  0  0  0  0  0  0  0  0  0  0  0
    3.8147    0.3483   11.9605 C   0  0  0  0  0  0  0  0  0  0  0  0
    3.7217   -1.0744   12.1580 O   0  0  0  0  0  0  0  0  0  0  0  0
    4.9976   -0.4124   12.2558 O   0  0  0  0  0  0  0  0  0  0  0  0
    1.9750   -1.1715    5.2016 C   0  0  0  0  0  0  0  0  0  0  0  0
    0.5986   -1.3489    5.1979 C   0  0  0  0  0  0  0  0  0  0  0  0
   -0.0096   -2.3164    4.4928 N   0  0  0  0  0  0  0  0  0  0  0  0
    0.7461   -3.1663    3.7417 N   0  0  0  0  0  0  0  0  0  0  0  0
    2.0831   -3.0499    3.6885 C   0  0  0  0  0  0  0  0  0  0  0  0
    2.7599   -2.0464    4.4142 C   0  0  0  0  0  0  0  0  0  0  0  0
    4.1726   -1.9794    4.3158 C   0  0  0  0  0  0  0  0  0  0  0  0
    4.8867   -2.8771    3.5067 C   0  0  0  0  0  0  0  0  0  0  0  0
    6.3496   -2.8035    3.4302 C   0  0  0  0  0  0  0  0  0  0  0  0
    6.9847   -2.0413    4.1429 O   0  0  0  0  0  0  0  0  0  0  0  0
    7.0470   -3.7163    2.4472 C   0  0  0  0  0  0  0  0  0  0  0  0
    8.2693   -3.7453    2.3813 O   0  0  0  0  0  0  0  0  0  0  0  0
    6.1325   -4.5085    1.5385 C   0  0  1  0  0  0  0  0  0  0  0  0
    4.8250   -4.8034    2.0211 O   0  0  0  0  0  0  0  0  0  0  0  0
    4.2182   -3.8588    2.7980 C   0  0  0  0  0  0  0  0  0  0  0  0
    2.8278   -3.9348    2.9092 C   0  0  0  0  0  0  0  0  0  0  0  0
    2.1913   -4.9018    2.2241 F   0  0  0  0  0  0  0  0  0  0  0  0
    6.0381   -3.8648    0.1923 C   0  0  1  0  0  0  0  0  0  0  0  0
    5.5335   -2.5065    0.1638 O   0  0  0  0  0  0  0  0  0  0  0  0
    7.1269   -4.1506   -0.6849 O   0  0  0  0  0  0  0  0  0  0  0  0
    5.9156   -4.6107   -1.0630 C   0  0  0  0  0  0  0  0  0  0  0  0
    5.2815   -4.3622   -2.0601 O   0  0  0  0  0  0  0  0  0  0  0  0
    2.7554    2.8662    2.2969 C   0  0  0  0  0  0  0  0  0  0  0  0
    1.6219    2.7087    1.8671 O   0  0  0  0  0  0  0  0  0  0  0  0
    3.8246    3.5148    1.4487 C   0  0  0  0  0  0  0  0  0  0  0  0
    3.7106    3.5845    0.2360 O   0  0  0  0  0  0  0  0  0  0  0  0
    5.0614    4.0529    2.1333 C   0  0  0  0  0  0  0  0  0  0  0  0
    5.6422    5.0501    1.7436 O   0  0  0  0  0  0  0  0  0  0  0  0
  1  2  1  0  0  0  0
  2  3  2  0  0  0  0
  3  4  1  0  0  0  0
  3 51  1  0  0  0  0
  4  5  1  0  0  0  0
  5  6  1  6  0  0  0
  5 47  1  0  0  0  0
  6  7  1  0  0  0  0
  7  8  2  0  0  0  0
  7 12  1  0  0  0  0
  8  9  1  0  0  0  0
  8 25  1  0  0  0  0
  9 10  1  0  0  0  0
 10 11  2  0  0  0  0
 10 21  1  0  0  0  0
 11 12  1  0  0  0  0
 11 13  1  0  0  0  0
 13 14  1  0  0  0  0
 13 19  1  0  0  0  0
 14 15  1  0  0  0  0
 15 16  2  0  0  0  0
 15 17  1  0  0  0  0
 17 18  1  0  0  0  0
 18 19  1  0  0  0  0
 19 20  2  0  0  0  0
 20 21  1  0  0  0  0
 20 22  1  0  0  0  0
 22 23  1  0  0  0  0
 22 24  1  0  0  0  0
 23 24  1  0  0  0  0
 25 26  2  0  0  0  0
 25 30  1  0  0  0  0
 26 27  1  0  0  0  0
 27 28  2  0  0  0  0
 28 29  1  0  0  0  0
 29 30  2  0  0  0  0
 29 40  1  0  0  0  0
 30 31  1  0  0  0  0
 31 32  2  0  0  0  0
 32 33  1  0  0  0  0
 32 39  1  0  0  0  0
 33 34  2  0  0  0  0
 33 35  1  0  0  0  0
 35 36  2  0  0  0  0
 37 35  1  1  0  0  0
 37 38  1  0  0  0  0
 37 42  1  0  0  0  0
 38 39  1  0  0  0  0
 39 40  2  0  0  0  0
 40 41  1  0  0  0  0
 42 43  1  6  0  0  0
 42 44  1  0  0  0  0
 42 45  1  0  0  0  0
 44 45  1  0  0  0  0
 45 46  2  0  0  0  0
 47 48  2  0  0  0  0
 47 49  1  0  0  0  0
 49 50  2  0  0  0  0
 49 51  1  0  0  0  0
 51 52  2  0  0  0  0
M  END
$$$$