
 OpenBabel11252016113D

 54 63  0  0  1  0  0  0  0  0999 V2000
   -5.5778  -14.2723   -7.7312 O   0  0  0  0  0  0  0  0  0  0  0  0
   -4.3441  -14.7928   -7.4326 C   0  0  0  0  0  0  0  0  0  0  0  0
   -3.7585  -14.6413   -6.2394 C   0  0  0  0  0  0  0  0  0  0  0  0
   -4.3582  -13.8980   -5.2350 O   0  0  0  0  0  0  0  0  0  0  0  0
   -4.2424  -14.4748   -3.9467 C   0  0  2  0  0  0  0  0  0  0  0  0
   -4.6353  -13.5128   -2.9306 O   0  0  0  0  0  0  0  0  0  0  0  0
   -5.9103  -12.9807   -2.9392 C   0  0  0  0  0  0  0  0  0  0  0  0
   -6.1441  -11.7279   -2.4781 C   0  0  0  0  0  0  0  0  0  0  0  0
   -7.4519  -11.2361   -2.3718 O   0  0  0  0  0  0  0  0  0  0  0  0
   -8.5371  -11.9522   -2.8710 C   0  0  0  0  0  0  0  0  0  0  0  0
   -8.3884  -13.2069   -3.3342 C   0  0  0  0  0  0  0  0  0  0  0  0
   -7.0436  -13.8783   -3.3887 C   0  0  0  0  0  0  0  0  0  0  0  0
   -9.5585  -13.9962   -3.8641 C   0  0  3  0  0  0  0  0  0  0  0  0
   -9.6841  -15.1814   -3.0982 O   0  0  0  0  0  0  0  0  0  0  0  0
  -10.6562  -16.0385   -3.5277 C   0  0  0  0  0  0  0  0  0  0  0  0
  -10.6483  -17.2219   -3.2396 O   0  0  0  0  0  0  0  0  0  0  0  0
  -11.5844  -15.4711   -4.3401 O   0  0  0  0  0  0  0  0  0  0  0  0
  -11.9981  -14.1476   -4.0343 C   0  0  3  0  0  0  0  0  0  0  0  0
  -10.8406  -13.2691   -3.6970 C   0  0  0  0  0  0  0  0  0  0  0  0
  -10.9133  -11.9963   -3.2486 C   0  0  0  0  0  0  0  0  0  0  0  0
   -9.7635  -11.3199   -2.8758 O   0  3  0  0  0  0  0  0  0  0  0  0
  -12.1826  -11.2521   -3.0717 C   0  0  0  0  0  0  0  0  0  0  0  0
  -12.8718  -11.2688   -1.8155 O   0  0  0  0  0  0  0  0  0  0  0  0
  -12.2155  -10.0654   -2.2578 O   0  0  0  0  0  0  0  0  0  0  0  0
  -12.5762  -13.5738   -5.1892 O   0  0  0  0  0  0  0  0  0  0  0  0
   -5.0753  -10.7489   -2.0375 C   0  0  0  0  0  0  0  0  0  0  0  0
   -3.9009  -11.2147   -1.4392 C   0  0  0  0  0  0  0  0  0  0  0  0
   -2.9265  -10.3806   -1.0587 N   0  3  0  0  0  0  0  0  0  0  0  0
   -1.7983  -10.8912   -0.5262 F   0  0  0  0  0  0  0  0  0  0  0  0
   -3.0263   -9.0726   -1.1719 N   0  0  0  0  0  0  0  0  0  0  0  0
   -4.1305   -8.5326   -1.6868 C   0  0  0  0  0  0  0  0  0  0  0  0
   -5.1958   -9.3319   -2.1585 C   0  0  0  0  0  0  0  0  0  0  0  0
   -6.3127   -8.6494   -2.7002 C   0  0  0  0  0  0  0  0  0  0  0  0
   -6.4218   -7.2544   -2.6756 C   0  0  0  0  0  0  0  0  0  0  0  0
   -5.3681   -6.4826   -2.2348 C   0  0  0  0  0  0  0  0  0  0  0  0
   -4.2351   -7.1352   -1.7505 C   0  0  0  0  0  0  0  0  0  0  0  0
   -3.2102   -6.3951   -1.3005 F   0  0  0  0  0  0  0  0  0  0  0  0
   -5.4055   -5.1122   -2.2301 O   0  0  0  0  0  0  0  0  0  0  0  0
   -6.4075   -4.5373   -3.1138 C   0  0  1  0  0  0  0  0  0  0  0  0
   -7.7585   -5.1122   -3.0089 C   0  0  0  0  0  0  0  0  0  0  0  0
   -8.8026   -4.4932   -2.9364 O   0  0  0  0  0  0  0  0  0  0  0  0
   -7.7012   -6.6283   -3.0389 C   0  0  0  0  0  0  0  0  0  0  0  0
   -8.6656   -7.3356   -3.2993 O   0  0  0  0  0  0  0  0  0  0  0  0
   -6.3030   -3.1607   -3.3641 O   0  0  0  0  0  0  0  0  0  0  0  0
   -6.0120   -4.0555   -4.4778 C   0  0  1  0  0  0  0  0  0  0  0  0
   -4.6265   -4.5097   -4.6828 O   0  0  0  0  0  0  0  0  0  0  0  0
   -5.0130   -3.4082   -5.2896 C   0  0  0  0  0  0  0  0  0  0  0  0
   -4.9874   -3.0995   -6.4602 O   0  0  0  0  0  0  0  0  0  0  0  0
   -2.8077  -14.7640   -3.5268 C   0  0  0  0  0  0  0  0  0  0  0  0
   -2.3713  -14.7919   -2.2994 N   0  0  0  0  0  0  0  0  0  0  0  0
   -1.8594  -15.0182   -4.6584 C   0  0  0  0  0  0  0  0  0  0  0  0
   -0.5829  -15.0029   -4.4263 N   0  0  0  0  0  0  0  0  0  0  0  0
   -2.4131  -15.2552   -6.0428 C   0  0  0  0  0  0  0  0  0  0  0  0
   -1.8363  -15.9394   -6.8668 O   0  0  0  0  0  0  0  0  0  0  0  0
  1  2  1  0  0  0  0
  2  3  2  0  0  0  0
  3  4  1  0  0  0  0
  3 53  1  0  0  0  0
  4  5  1  0  0  0  0
  5  6  1  1  0  0  0
  5 49  1  0  0  0  0
  6  7  1  0  0  0  0
  7  8  2  0  0  0  0
  7 12  1  0  0  0  0
  8  9  1  0  0  0  0
  8 26  1  0  0  0  0
  9 10  1  0  0  0  0
 10 11  2  0  0  0  0
 10 21  1  0  0  0  0
 11 12  1  0  0  0  0
 11 13  1  0  0  0  0
 13 14  1  0  0  0  0
 13 19  1  0  0  0  0
 14 15  1  0  0  0  0
 15 16  2  0  0  0  0
 15 17  1  0  0  0  0
 17 18  1  0  0  0  0
 18 19  1  0  0  0  0
 18 25  1  0  0  0  0
 19 20  2  0  0  0  0
 20 21  1  0  0  0  0
 20 22  1  0  0  0  0
 22 23  1  0  0  0  0
 22 24  1  0  0  0  0
 23 24  1  0  0  0  0
 26 27  2  0  0  0  0
 26 32  1  0  0  0  0
 27 28  1  0  0  0  0
 28 29  1  0  0  0  0
 28 30  2  0  0  0  0
 30 31  1  0  0  0  0
 31 32  2  0  0  0  0
 31 36  1  0  0  0  0
 32 33  1  0  0  0  0
 33 34  2  0  0  0  0
 34 35  1  0  0  0  0
 34 42  1  0  0  0  0
 35 36  2  0  0  0  0
 35 38  1  0  0  0  0
 36 37  1  0  0  0  0
 39 38  1  1  0  0  0
 39 40  1  0  0  0  0
 39 44  1  0  0  0  0
 39 45  1  0  0  0  0
 40 41  2  0  0  0  0
 40 42  1  0  0  0  0
 42 43  2  0  0  0  0
 45 44  1  1  0  0  0
 45 46  1  0  0  0  0
 45 47  1  0  0  0  0
 46 47  1  0  0  0  0
 47 48  2  0  0  0  0
 49 50  2  0  0  0  0
 49 51  1  0  0  0  0
 51 52  2  0  0  0  0
 51 53  1  0  0  0  0
 53 54  2  0  0  0  0
M  CHG  2  21   1  28   1
M  END
$$$$