
 OpenBabel11222000363D

 55 63  0  0  1  0  0  0  0  0999 V2000
    7.2743   -3.2389    3.6528 O   0  0  0  0  0  0  0  0  0  0  0  0
    7.0910   -1.9407    3.2453 C   0  0  0  0  0  0  0  0  0  0  0  0
    5.8879   -1.4540    2.9245 C   0  0  0  0  0  0  0  0  0  0  0  0
    4.7705   -2.2711    2.9266 O   0  0  0  0  0  0  0  0  0  0  0  0
    3.6440   -1.6746    3.5463 C   0  0  2  0  0  0  0  0  0  0  0  0
    2.4958   -2.5577    3.4329 O   0  0  0  0  0  0  0  0  0  0  0  0
    2.5410   -3.8216    4.0034 C   0  0  0  0  0  0  0  0  0  0  0  0
    1.8416   -4.8617    3.4819 C   0  0  0  0  0  0  0  0  0  0  0  0
    1.8905   -6.1335    4.0728 O   0  0  0  0  0  0  0  0  0  0  0  0
    2.6731   -6.3851    5.1968 C   0  0  0  0  0  0  0  0  0  0  0  0
    3.2982   -5.3800    5.8312 C   0  0  0  0  0  0  0  0  0  0  0  0
    3.3149   -3.9802    5.2915 C   0  0  0  0  0  0  0  0  0  0  0  0
    4.0640   -5.6026    7.1006 C   0  0  3  0  0  0  0  0  0  0  0  0
    3.3438   -4.9774    8.1462 O   0  0  0  0  0  0  0  0  0  0  0  0
    3.8629   -5.0871    9.4006 C   0  0  0  0  0  0  0  0  0  0  0  0
    3.4789   -4.3734   10.3116 O   0  0  0  0  0  0  0  0  0  0  0  0
    4.8299   -6.0240    9.5598 O   0  0  0  0  0  0  0  0  0  0  0  0
    4.9648   -7.1532    8.7008 C   0  0  3  0  0  0  0  0  0  0  0  0
    4.1447   -7.0348    7.4665 C   0  0  0  0  0  0  0  0  0  0  0  0
    3.5477   -8.0156    6.7513 C   0  0  0  0  0  0  0  0  0  0  0  0
    2.7759   -7.6914    5.6373 O   0  3  0  0  0  0  0  0  0  0  0  0
    3.6582   -9.4694    7.0449 C   0  0  0  0  0  0  0  0  0  0  0  0
    2.5851  -10.3631    6.7042 O   0  0  0  0  0  0  0  0  0  0  0  0
    3.8222  -10.4101    5.9701 O   0  0  0  0  0  0  0  0  0  0  0  0
    6.2989   -7.2228    8.2396 O   0  0  0  0  0  0  0  0  0  0  0  0
    0.9428   -4.7749    2.2673 C   0  0  0  0  0  0  0  0  0  0  0  0
    0.2850   -3.5718    1.9986 C   0  0  0  0  0  0  0  0  0  0  0  0
   -0.5152   -3.4341    0.9391 N   0  3  0  0  0  0  0  0  0  0  0  0
   -1.1218   -2.2494    0.7278 F   0  0  0  0  0  0  0  0  0  0  0  0
   -0.7522   -4.4162    0.0973 N   0  0  0  0  0  0  0  0  0  0  0  0
   -0.2216   -5.6264    0.2985 C   0  0  0  0  0  0  0  0  0  0  0  0
    0.6418   -5.8638    1.3917 C   0  0  0  0  0  0  0  0  0  0  0  0
    1.1195   -7.1862    1.5444 C   0  0  0  0  0  0  0  0  0  0  0  0
    0.7172   -8.2405    0.7140 C   0  0  0  0  0  0  0  0  0  0  0  0
    1.0837   -9.6079    1.0896 C   0  0  0  0  0  0  0  0  0  0  0  0
    1.6175   -9.8118    2.1738 O   0  0  0  0  0  0  0  0  0  0  0  0
    0.6912  -10.7142    0.1384 C   0  0  0  0  0  0  0  0  0  0  0  0
    0.8311  -11.8818    0.4688 O   0  0  0  0  0  0  0  0  0  0  0  0
    0.1987  -10.2403   -1.2154 C   0  0  1  0  0  0  0  0  0  0  0  0
   -0.4972   -8.9840   -1.2351 O   0  0  0  0  0  0  0  0  0  0  0  0
   -0.0865   -8.0024   -0.3781 C   0  0  0  0  0  0  0  0  0  0  0  0
   -0.5449   -6.6882   -0.5810 C   0  0  0  0  0  0  0  0  0  0  0  0
   -1.4010   -6.4118   -1.7033 C   0  0  0  0  0  0  0  0  0  0  0  0
   -2.4313   -6.0423   -2.9906 S   0  3  0  0  0  0  0  0  0  0  0  0
    1.3278  -10.2125   -2.1919 C   0  0  1  0  0  0  0  0  0  0  0  0
    2.4290   -9.3211   -1.8712 O   0  0  0  0  0  0  0  0  0  0  0  0
    1.6894  -11.4813   -2.7286 O   0  0  0  0  0  0  0  0  0  0  0  0
    1.2033  -10.5796   -3.6107 C   0  0  0  0  0  0  0  0  0  0  0  0
    1.7302  -10.0707   -4.5649 O   0  0  0  0  0  0  0  0  0  0  0  0
    3.2139   -0.3742    2.8770 C   0  0  0  0  0  0  0  0  0  0  0  0
    2.0588    0.0324    2.8461 O   0  0  0  0  0  0  0  0  0  0  0  0
    4.3453    0.3785    2.2124 C   0  0  0  0  0  0  0  0  0  0  0  0
    4.0992    1.2409    1.3863 O   0  0  0  0  0  0  0  0  0  0  0  0
    5.7715   -0.0265    2.5165 C   0  0  0  0  0  0  0  0  0  0  0  0
    6.6999    0.7574    2.4607 O   0  0  0  0  0  0  0  0  0  0  0  0
  1  2  1  0  0  0  0
  2  3  2  0  0  0  0
  3  4  1  0  0  0  0
  3 54  1  0  0  0  0
  4  5  1  0  0  0  0
  5  6  1  6  0  0  0
  5 50  1  0  0  0  0
  6  7  1  0  0  0  0
  7  8  2  0  0  0  0
  7 12  1  0  0  0  0
  8  9  1  0  0  0  0
  8 26  1  0  0  0  0
  9 10  1  0  0  0  0
 10 11  2  0  0  0  0
 10 21  1  0  0  0  0
 11 12  1  0  0  0  0
 11 13  1  0  0  0  0
 13 14  1  0  0  0  0
 13 19  1  0  0  0  0
 14 15  1  0  0  0  0
 15 16  2  0  0  0  0
 15 17  1  0  0  0  0
 17 18  1  0  0  0  0
 18 19  1  0  0  0  0
 18 25  1  0  0  0  0
 19 20  2  0  0  0  0
 20 21  1  0  0  0  0
 20 22  1  0  0  0  0
 22 23  1  0  0  0  0
 22 24  1  0  0  0  0
 23 24  1  0  0  0  0
 26 27  2  0  0  0  0
 26 32  1  0  0  0  0
 27 28  1  0  0  0  0
 28 29  1  0  0  0  0
 28 30  2  0  0  0  0
 30 31  1  0  0  0  0
 31 32  2  0  0  0  0
 31 42  1  0  0  0  0
 32 33  1  0  0  0  0
 33 34  2  0  0  0  0
 34 35  1  0  0  0  0
 34 41  1  0  0  0  0
 35 36  2  0  0  0  0
 35 37  1  0  0  0  0
 37 38  2  0  0  0  0
 39 37  1  1  0  0  0
 39 40  1  0  0  0  0
 39 45  1  0  0  0  0
 40 41  1  0  0  0  0
 41 42  2  0  0  0  0
 42 43  1  0  0  0  0
 43 44  3  0  0  0  0
 45 46  1  1  0  0  0
 45 47  1  0  0  0  0
 45 48  1  0  0  0  0
 47 48  1  0  0  0  0
 48 49  2  0  0  0  0
 50 51  2  0  0  0  0
 50 52  1  0  0  0  0
 52 53  2  0  0  0  0
 52 54  1  0  0  0  0
 54 55  2  0  0  0  0
M  CHG  3  21   1  28   1  44   1
M  END
$$$$