
 OpenBabel11272020533D

 54 62  0  0  1  0  0  0  0  0999 V2000
   -2.0161    4.1846   -4.1016 O   0  0  0  0  0  0  0  0  0  0  0  0
   -1.8413    2.8704   -3.7534 C   0  0  0  0  0  0  0  0  0  0  0  0
   -0.6773    2.3820   -3.3073 C   0  0  0  0  0  0  0  0  0  0  0  0
    0.4585    3.1522   -3.2578 O   0  0  0  0  0  0  0  0  0  0  0  0
    1.3106    2.9922   -2.1344 C   0  0  2  0  0  0  0  0  0  0  0  0
    2.5896    3.6013   -2.3869 O   0  0  0  0  0  0  0  0  0  0  0  0
    2.6668    4.9637   -2.6471 C   0  0  0  0  0  0  0  0  0  0  0  0
    3.8590    5.5355   -2.9259 C   0  0  0  0  0  0  0  0  0  0  0  0
    4.0250    6.8982   -3.1382 O   0  0  0  0  0  0  0  0  0  0  0  0
    2.9444    7.7441   -2.9531 C   0  0  0  0  0  0  0  0  0  0  0  0
    1.7100    7.2828   -2.6856 C   0  0  0  0  0  0  0  0  0  0  0  0
    1.4231    5.8182   -2.5856 C   0  0  0  0  0  0  0  0  0  0  0  0
    0.5646    8.2434   -2.4713 C   0  0  3  0  0  0  0  0  0  0  0  0
   -0.0400    7.9237   -1.2219 O   0  0  0  0  0  0  0  0  0  0  0  0
   -0.9709    8.7727   -0.7541 C   0  0  0  0  0  0  0  0  0  0  0  0
   -1.7396    8.3846    0.1956 N   0  0  0  0  0  0  0  0  0  0  0  0
   -1.0964   10.0003   -1.2919 O   0  0  0  0  0  0  0  0  0  0  0  0
   -0.1156   10.5468   -2.0380 C   0  0  0  0  0  0  0  0  0  0  0  0
   -0.1681   11.7073   -2.4263 O   0  0  0  0  0  0  0  0  0  0  0  0
    0.9810    9.6625   -2.4156 C   0  0  0  0  0  0  0  0  0  0  0  0
    2.2399   10.0669   -2.6899 C   0  0  0  0  0  0  0  0  0  0  0  0
    3.1792    9.0954   -3.0253 N   0  0  0  0  0  0  0  0  0  0  0  0
    2.7327   11.4636   -2.6129 C   0  0  0  0  0  0  0  0  0  0  0  0
    3.2845   11.9901   -1.3948 O   0  0  0  0  0  0  0  0  0  0  0  0
    4.1383   11.7671   -2.5327 O   0  0  0  0  0  0  0  0  0  0  0  0
    5.1185    4.7698   -2.9917 C   0  0  0  0  0  0  0  0  0  0  0  0
    5.8537    4.6445   -1.8135 C   0  0  0  0  0  0  0  0  0  0  0  0
    7.0045    3.8917   -1.8417 C   0  0  0  0  0  0  0  0  0  0  0  0
    7.7125    3.7632   -0.7112 F   0  0  0  0  0  0  0  0  0  0  0  0
    7.4631    3.2568   -2.9339 N   0  0  0  0  0  0  0  0  0  0  0  0
    6.7547    3.3479   -4.0724 C   0  0  0  0  0  0  0  0  0  0  0  0
    5.5709    4.1211   -4.1693 C   0  0  0  0  0  0  0  0  0  0  0  0
    4.8904    4.1817   -5.4097 C   0  0  0  0  0  0  0  0  0  0  0  0
    5.3166    3.4106   -6.4935 C   0  0  0  0  0  0  0  0  0  0  0  0
    4.5431    3.3768   -7.7424 C   0  0  0  0  0  0  0  0  0  0  0  0
    3.6898    4.2134   -7.9910 O   0  0  0  0  0  0  0  0  0  0  0  0
    4.8426    2.2354   -8.6945 C   0  0  0  0  0  0  0  0  0  0  0  0
    4.3352    2.1900   -9.8065 O   0  0  0  0  0  0  0  0  0  0  0  0
    5.7494    1.1731   -8.1188 C   0  0  1  0  0  0  0  0  0  0  0  0
    6.8341    1.7294   -7.3561 O   0  0  0  0  0  0  0  0  0  0  0  0
    6.4342    2.5999   -6.3758 C   0  0  0  0  0  0  0  0  0  0  0  0
    7.1666    2.6223   -5.1907 C   0  0  0  0  0  0  0  0  0  0  0  0
    8.2652    1.8500   -5.1097 F   0  0  0  0  0  0  0  0  0  0  0  0
    4.9784    0.1588   -7.3089 C   0  0  1  0  0  0  0  0  0  0  0  0
    4.2315    0.6482   -6.1761 O   0  0  0  0  0  0  0  0  0  0  0  0
    4.3061   -0.8403   -8.0737 O   0  0  0  0  0  0  0  0  0  0  0  0
    5.3899   -1.2980   -7.2549 C   0  0  3  0  0  0  0  0  0  0  0  0
    4.9884   -2.0103   -6.0706 O   0  0  0  0  0  0  0  0  0  0  0  0
    1.5933    1.5481   -1.7364 C   0  0  0  0  0  0  0  0  0  0  0  0
    2.6469    1.1111   -1.2880 O   0  0  0  0  0  0  0  0  0  0  0  0
    0.3960    0.6530   -1.8667 C   0  0  0  0  0  0  0  0  0  0  0  0
    0.2230   -0.2628   -1.0727 O   0  0  0  0  0  0  0  0  0  0  0  0
   -0.6440    0.9563   -2.9085 C   0  0  0  0  0  0  0  0  0  0  0  0
   -1.3970    0.0982   -3.3477 O   0  0  0  0  0  0  0  0  0  0  0  0
  1  2  1  0  0  0  0
  2  3  2  0  0  0  0
  3  4  1  0  0  0  0
  3 53  1  0  0  0  0
  4  5  1  0  0  0  0
  5  6  1  6  0  0  0
  5 49  1  0  0  0  0
  6  7  1  0  0  0  0
  7  8  2  0  0  0  0
  7 12  1  0  0  0  0
  8  9  1  0  0  0  0
  8 26  1  0  0  0  0
  9 10  1  0  0  0  0
 10 11  2  0  0  0  0
 10 22  1  0  0  0  0
 11 12  1  0  0  0  0
 11 13  1  0  0  0  0
 13 14  1  0  0  0  0
 13 20  1  0  0  0  0
 14 15  1  0  0  0  0
 15 16  2  0  0  0  0
 15 17  1  0  0  0  0
 17 18  1  0  0  0  0
 18 19  2  0  0  0  0
 18 20  1  0  0  0  0
 20 21  2  0  0  0  0
 21 22  1  0  0  0  0
 21 23  1  0  0  0  0
 23 24  1  0  0  0  0
 23 25  1  0  0  0  0
 24 25  1  0  0  0  0
 26 27  2  0  0  0  0
 26 32  1  0  0  0  0
 27 28  1  0  0  0  0
 28 29  1  0  0  0  0
 28 30  2  0  0  0  0
 30 31  1  0  0  0  0
 31 32  2  0  0  0  0
 31 42  1  0  0  0  0
 32 33  1  0  0  0  0
 33 34  2  0  0  0  0
 34 35  1  0  0  0  0
 34 41  1  0  0  0  0
 35 36  2  0  0  0  0
 35 37  1  0  0  0  0
 37 38  2  0  0  0  0
 39 37  1  1  0  0  0
 39 40  1  0  0  0  0
 39 44  1  0  0  0  0
 40 41  1  0  0  0  0
 41 42  2  0  0  0  0
 42 43  1  0  0  0  0
 44 45  1  1  0  0  0
 44 46  1  0  0  0  0
 44 47  1  0  0  0  0
 46 47  1  0  0  0  0
 47 48  1  0  0  0  0
 49 50  2  0  0  0  0
 49 51  1  0  0  0  0
 51 52  2  0  0  0  0
 51 53  1  0  0  0  0
 53 54  2  0  0  0  0
M  END
$$$$