
 OpenBabel11272002223D

 54 62  0  0  1  0  0  0  0  0999 V2000
    6.7072   -3.3080    4.4350 O   0  0  0  0  0  0  0  0  0  0  0  0
    6.3959   -2.0020    4.1441 C   0  0  0  0  0  0  0  0  0  0  0  0
    5.1966   -1.6363    3.6811 C   0  0  0  0  0  0  0  0  0  0  0  0
    4.2170   -2.5859    3.4483 O   0  0  0  0  0  0  0  0  0  0  0  0
    2.9378   -2.1378    3.8775 C   0  0  2  0  0  0  0  0  0  0  0  0
    1.9820   -3.2103    3.7931 O   0  0  0  0  0  0  0  0  0  0  0  0
    2.2122   -4.3614    4.5332 C   0  0  0  0  0  0  0  0  0  0  0  0
    1.7141   -5.5570    4.1379 C   0  0  0  0  0  0  0  0  0  0  0  0
    1.9256   -6.7225    4.8942 O   0  0  0  0  0  0  0  0  0  0  0  0
    2.7383   -6.7008    6.0308 C   0  0  0  0  0  0  0  0  0  0  0  0
    3.2082   -5.5387    6.5147 C   0  0  0  0  0  0  0  0  0  0  0  0
    2.9819   -4.2311    5.8232 C   0  0  0  0  0  0  0  0  0  0  0  0
    4.0495   -5.4703    7.7560 C   0  0  3  0  0  0  0  0  0  0  0  0
    3.3504   -4.6983    8.7161 O   0  0  0  0  0  0  0  0  0  0  0  0
    4.0409   -4.4638    9.8666 C   0  0  0  0  0  0  0  0  0  0  0  0
    3.7586   -3.5369   10.6112 O   0  0  0  0  0  0  0  0  0  0  0  0
    5.0848   -5.2908   10.0721 O   0  0  0  0  0  0  0  0  0  0  0  0
    4.9605   -6.6582    9.6719 C   0  0  3  0  0  0  0  0  0  0  0  0
    4.2433   -6.7991    8.3731 C   0  0  0  0  0  0  0  0  0  0  0  0
    3.7901   -7.9463    7.8150 C   0  0  0  0  0  0  0  0  0  0  0  0
    3.0481   -7.9030    6.6360 O   0  3  0  0  0  0  0  0  0  0  0  0
    4.0066   -9.2839    8.4009 C   0  0  3  0  0  0  0  0  0  0  0  0
    3.4572  -10.3956    7.6966 N   0  0  0  0  0  0  0  0  0  0  0  0
    2.8498  -10.0395    8.7214 N   0  0  0  0  0  0  0  0  0  0  0  0
    6.2514   -7.1781    9.4307 O   0  0  0  0  0  0  0  0  0  0  0  0
    0.9045   -5.7482    2.8806 C   0  0  0  0  0  0  0  0  0  0  0  0
    0.0581   -4.7220    2.4447 C   0  0  0  0  0  0  0  0  0  0  0  0
   -0.6604   -4.8335    1.3242 N   0  3  0  0  0  0  0  0  0  0  0  0
   -1.4215   -3.7933    0.9307 F   0  0  0  0  0  0  0  0  0  0  0  0
   -0.6614   -5.9253    0.5893 N   0  0  0  0  0  0  0  0  0  0  0  0
    0.0930   -6.9657    0.9475 C   0  0  0  0  0  0  0  0  0  0  0  0
    0.9181   -6.9318    2.0922 C   0  0  0  0  0  0  0  0  0  0  0  0
    1.6942   -8.0857    2.3611 C   0  0  0  0  0  0  0  0  0  0  0  0
    1.6145   -9.2378    1.5701 C   0  0  0  0  0  0  0  0  0  0  0  0
    2.3370  -10.4452    1.9824 C   0  0  0  0  0  0  0  0  0  0  0  0
    2.9263  -10.4681    3.0545 O   0  0  0  0  0  0  0  0  0  0  0  0
    2.2109  -11.6430    1.0665 C   0  0  0  0  0  0  0  0  0  0  0  0
    2.4104  -12.7688    1.4945 O   0  0  0  0  0  0  0  0  0  0  0  0
    1.7968  -11.2875   -0.3464 C   0  0  1  0  0  0  0  0  0  0  0  0
    0.7266  -10.3241   -0.4037 O   0  0  0  0  0  0  0  0  0  0  0  0
    0.8226   -9.2567    0.4419 C   0  0  0  0  0  0  0  0  0  0  0  0
    0.0658   -8.1198    0.1566 C   0  0  0  0  0  0  0  0  0  0  0  0
   -0.7279   -8.1309   -0.9264 F   0  0  0  0  0  0  0  0  0  0  0  0
    2.9742  -10.8107   -1.1525 C   0  0  1  0  0  0  0  0  0  0  0  0
    3.6623   -9.6352   -0.6715 O   0  0  0  0  0  0  0  0  0  0  0  0
    3.8182  -11.8500   -1.6473 O   0  0  0  0  0  0  0  0  0  0  0  0
    3.1090  -11.0959   -2.6346 C   0  0  3  0  0  0  0  0  0  0  0  0
    3.9258  -10.1635   -3.3639 O   0  0  0  0  0  0  0  0  0  0  0  0
    2.4852   -1.0148    2.9613 C   0  0  0  0  0  0  0  0  0  0  0  0
    1.3901   -0.9622    2.4178 O   0  0  0  0  0  0  0  0  0  0  0  0
    3.5578    0.0433    2.7789 C   0  0  0  0  0  0  0  0  0  0  0  0
    3.3406    1.0376    2.1104 O   0  0  0  0  0  0  0  0  0  0  0  0
    4.9132   -0.1925    3.4298 C   0  0  0  0  0  0  0  0  0  0  0  0
    5.6398    0.7174    3.7819 O   0  0  0  0  0  0  0  0  0  0  0  0
  1  2  1  0  0  0  0
  2  3  2  0  0  0  0
  3  4  1  0  0  0  0
  3 53  1  0  0  0  0
  4  5  1  0  0  0  0
  5  6  1  6  0  0  0
  5 49  1  0  0  0  0
  6  7  1  0  0  0  0
  7  8  2  0  0  0  0
  7 12  1  0  0  0  0
  8  9  1  0  0  0  0
  8 26  1  0  0  0  0
  9 10  1  0  0  0  0
 10 11  2  0  0  0  0
 10 21  1  0  0  0  0
 11 12  1  0  0  0  0
 11 13  1  0  0  0  0
 13 14  1  0  0  0  0
 13 19  1  0  0  0  0
 14 15  1  0  0  0  0
 15 16  2  0  0  0  0
 15 17  1  0  0  0  0
 17 18  1  0  0  0  0
 18 19  1  0  0  0  0
 18 25  1  0  0  0  0
 19 20  2  0  0  0  0
 20 21  1  0  0  0  0
 20 22  1  0  0  0  0
 22 23  1  0  0  0  0
 22 24  1  0  0  0  0
 23 24  2  0  0  0  0
 26 27  2  0  0  0  0
 26 32  1  0  0  0  0
 27 28  1  0  0  0  0
 28 29  1  0  0  0  0
 28 30  2  0  0  0  0
 30 31  1  0  0  0  0
 31 32  2  0  0  0  0
 31 42  1  0  0  0  0
 32 33  1  0  0  0  0
 33 34  2  0  0  0  0
 34 35  1  0  0  0  0
 34 41  1  0  0  0  0
 35 36  2  0  0  0  0
 35 37  1  0  0  0  0
 37 38  2  0  0  0  0
 39 37  1  1  0  0  0
 39 40  1  0  0  0  0
 39 44  1  0  0  0  0
 40 41  1  0  0  0  0
 41 42  2  0  0  0  0
 42 43  1  0  0  0  0
 44 45  1  1  0  0  0
 44 46  1  0  0  0  0
 44 47  1  0  0  0  0
 46 47  1  0  0  0  0
 47 48  1  0  0  0  0
 49 50  2  0  0  0  0
 49 51  1  0  0  0  0
 51 52  2  0  0  0  0
 51 53  1  0  0  0  0
 53 54  2  0  0  0  0
M  CHG  2  21   1  28   1
M  END
$$$$