
 OpenBabel11272020503D

 54 62  0  0  1  0  0  0  0  0999 V2000
    2.5237    8.1710   -3.2613 O   0  0  0  0  0  0  0  0  0  0  0  0
    2.4348    7.0279   -4.0131 C   0  0  0  0  0  0  0  0  0  0  0  0
    2.5804    5.8029   -3.4935 C   0  0  0  0  0  0  0  0  0  0  0  0
    2.9094    5.6152   -2.1660 O   0  0  0  0  0  0  0  0  0  0  0  0
    2.0744    4.6600   -1.5137 C   0  0  2  0  0  0  0  0  0  0  0  0
    2.3565    4.6048   -0.1036 O   0  0  0  0  0  0  0  0  0  0  0  0
    2.2186    5.7964    0.6048 C   0  0  0  0  0  0  0  0  0  0  0  0
    2.9632    6.0577    1.7029 C   0  0  0  0  0  0  0  0  0  0  0  0
    2.8683    7.2455    2.4252 O   0  0  0  0  0  0  0  0  0  0  0  0
    1.9437    8.2031    2.0382 C   0  0  0  0  0  0  0  0  0  0  0  0
    1.0964    8.0031    1.0143 C   0  0  0  0  0  0  0  0  0  0  0  0
    1.1550    6.7753    0.1693 C   0  0  0  0  0  0  0  0  0  0  0  0
    0.0941    9.0593    0.6286 C   0  0  3  0  0  0  0  0  0  0  0  0
   -1.2059    8.4888    0.7009 O   0  0  0  0  0  0  0  0  0  0  0  0
   -2.2424    9.3319    0.5365 C   0  0  0  0  0  0  0  0  0  0  0  0
   -3.4073    8.8434    0.3187 N   0  0  0  0  0  0  0  0  0  0  0  0
   -2.0420   10.6649    0.5723 O   0  0  0  0  0  0  0  0  0  0  0  0
   -0.9342   11.1969    1.1308 C   0  0  0  0  0  0  0  0  0  0  0  0
   -0.7869   12.4049    1.2651 O   0  0  0  0  0  0  0  0  0  0  0  0
    0.1118   10.2511    1.5013 C   0  0  0  0  0  0  0  0  0  0  0  0
    1.0149   10.4225    2.4897 C   0  0  0  0  0  0  0  0  0  0  0  0
    1.9203    9.3913    2.7292 N   0  0  0  0  0  0  0  0  0  0  0  0
    1.1126   11.6169    3.3627 C   0  0  0  0  0  0  0  0  0  0  0  0
    0.3832   11.7104    4.5956 O   0  0  0  0  0  0  0  0  0  0  0  0
    1.8182   11.5839    4.6171 O   0  0  0  0  0  0  0  0  0  0  0  0
    3.9224    5.0973    2.2840 C   0  0  0  0  0  0  0  0  0  0  0  0
    3.4350    4.2156    3.2498 C   0  0  0  0  0  0  0  0  0  0  0  0
    4.3079    3.3087    3.8053 C   0  0  0  0  0  0  0  0  0  0  0  0
    3.8542    2.4867    4.7617 F   0  0  0  0  0  0  0  0  0  0  0  0
    5.6024    3.2022    3.4592 N   0  0  0  0  0  0  0  0  0  0  0  0
    6.0942    4.0504    2.5388 C   0  0  0  0  0  0  0  0  0  0  0  0
    5.2945    5.0492    1.9314 C   0  0  0  0  0  0  0  0  0  0  0  0
    5.9032    5.9589    1.0368 C   0  0  0  0  0  0  0  0  0  0  0  0
    7.2683    5.8708    0.7425 C   0  0  0  0  0  0  0  0  0  0  0  0
    7.9127    6.8953   -0.0835 C   0  0  0  0  0  0  0  0  0  0  0  0
    7.2841    7.7525   -0.6810 O   0  0  0  0  0  0  0  0  0  0  0  0
    9.4188    6.8402   -0.1337 C   0  0  0  0  0  0  0  0  0  0  0  0
   10.0813    7.8600   -0.2496 O   0  0  0  0  0  0  0  0  0  0  0  0
    9.9732    5.4427   -0.0386 C   0  0  1  0  0  0  0  0  0  0  0  0
    9.3629    4.6453    0.9849 O   0  0  0  0  0  0  0  0  0  0  0  0
    8.0399    4.8482    1.2673 C   0  0  0  0  0  0  0  0  0  0  0  0
    7.4403    3.9638    2.1688 C   0  0  0  0  0  0  0  0  0  0  0  0
    8.2054    2.9988    2.7104 F   0  0  0  0  0  0  0  0  0  0  0  0
    9.9219    4.7390   -1.3669 C   0  0  1  0  0  0  0  0  0  0  0  0
    8.6208    4.5898   -1.9779 O   0  0  0  0  0  0  0  0  0  0  0  0
   10.9536    5.0895   -2.2958 O   0  0  0  0  0  0  0  0  0  0  0  0
   10.9840    3.8453   -1.7943 C   0  0  0  0  0  0  0  0  0  0  0  0
   11.8684    3.2580   -1.1995 O   0  0  0  0  0  0  0  0  0  0  0  0
    2.2553    3.2817   -2.1382 C   0  0  0  0  0  0  0  0  0  0  0  0
    2.2989    2.2212   -1.5316 O   0  0  0  0  0  0  0  0  0  0  0  0
    2.2870    3.3092   -3.6519 C   0  0  0  0  0  0  0  0  0  0  0  0
    2.1771    2.2703   -4.2859 O   0  0  0  0  0  0  0  0  0  0  0  0
    2.3957    4.6300   -4.3868 C   0  0  0  0  0  0  0  0  0  0  0  0
    2.2924    4.7087   -5.5997 O   0  0  0  0  0  0  0  0  0  0  0  0
  1  2  1  0  0  0  0
  2  3  2  0  0  0  0
  3  4  1  0  0  0  0
  3 53  1  0  0  0  0
  4  5  1  0  0  0  0
  5  6  1  1  0  0  0
  5 49  1  0  0  0  0
  6  7  1  0  0  0  0
  7  8  2  0  0  0  0
  7 12  1  0  0  0  0
  8  9  1  0  0  0  0
  8 26  1  0  0  0  0
  9 10  1  0  0  0  0
 10 11  2  0  0  0  0
 10 22  1  0  0  0  0
 11 12  1  0  0  0  0
 11 13  1  0  0  0  0
 13 14  1  0  0  0  0
 13 20  1  0  0  0  0
 14 15  1  0  0  0  0
 15 16  2  0  0  0  0
 15 17  1  0  0  0  0
 17 18  1  0  0  0  0
 18 19  2  0  0  0  0
 18 20  1  0  0  0  0
 20 21  2  0  0  0  0
 21 22  1  0  0  0  0
 21 23  1  0  0  0  0
 23 24  1  0  0  0  0
 23 25  1  0  0  0  0
 24 25  1  0  0  0  0
 26 27  2  0  0  0  0
 26 32  1  0  0  0  0
 27 28  1  0  0  0  0
 28 29  1  0  0  0  0
 28 30  2  0  0  0  0
 30 31  1  0  0  0  0
 31 32  2  0  0  0  0
 31 42  1  0  0  0  0
 32 33  1  0  0  0  0
 33 34  2  0  0  0  0
 34 35  1  0  0  0  0
 34 41  1  0  0  0  0
 35 36  2  0  0  0  0
 35 37  1  0  0  0  0
 37 38  2  0  0  0  0
 39 37  1  6  0  0  0
 39 40  1  0  0  0  0
 39 44  1  0  0  0  0
 40 41  1  0  0  0  0
 41 42  2  0  0  0  0
 42 43  1  0  0  0  0
 44 45  1  6  0  0  0
 44 46  1  0  0  0  0
 44 47  1  0  0  0  0
 46 47  1  0  0  0  0
 47 48  2  0  0  0  0
 49 50  2  0  0  0  0
 49 51  1  0  0  0  0
 51 52  2  0  0  0  0
 51 53  1  0  0  0  0
 53 54  2  0  0  0  0
M  END
$$$$