
 OpenBabel11252023293D

 54 63  0  0  1  0  0  0  0  0999 V2000
    7.8773   -6.2642  -14.0933 O   0  0  0  0  0  0  0  0  0  0  0  0
    8.3019   -5.7383  -12.9000 C   0  0  0  0  0  0  0  0  0  0  0  0
    7.6099   -4.7921  -12.2541 C   0  0  0  0  0  0  0  0  0  0  0  0
    6.4596   -4.2520  -12.8003 O   0  0  0  0  0  0  0  0  0  0  0  0
    5.3956   -4.0845  -11.8857 C   0  0  2  0  0  0  0  0  0  0  0  0
    4.3990   -3.2118  -12.4590 O   0  0  0  0  0  0  0  0  0  0  0  0
    3.2903   -3.7542  -13.0838 C   0  0  0  0  0  0  0  0  0  0  0  0
    2.1313   -3.0657  -13.0923 C   0  0  0  0  0  0  0  0  0  0  0  0
    0.9760   -3.4874  -13.7227 O   0  0  0  0  0  0  0  0  0  0  0  0
    0.9652   -4.7296  -14.3216 C   0  0  0  0  0  0  0  0  0  0  0  0
    2.0849   -5.5344  -14.3613 C   0  0  0  0  0  0  0  0  0  0  0  0
    3.4002   -5.0683  -13.8150 C   0  0  0  0  0  0  0  0  0  0  0  0
    1.9117   -6.7960  -14.9211 C   0  0  0  0  0  0  0  0  0  0  0  0
    3.0135   -7.6589  -14.9739 O   0  0  0  0  0  0  0  0  0  0  0  0
    2.8615   -9.0303  -15.1968 C   0  0  0  0  0  0  0  0  0  0  0  0
    3.8024   -9.8006  -15.0572 O   0  0  0  0  0  0  0  0  0  0  0  0
    1.6034   -9.4633  -15.4614 O   0  0  0  0  0  0  0  0  0  0  0  0
    0.6466   -8.5804  -16.0350 C   0  0  3  0  0  0  0  0  0  0  0  0
    0.6966   -7.2223  -15.4277 C   0  0  0  0  0  0  0  0  0  0  0  0
   -0.3802   -6.3334  -15.3855 C   0  0  0  0  0  0  0  0  0  0  0  0
   -0.2335   -5.0995  -14.8165 N   0  0  0  0  0  0  0  0  0  0  0  0
   -1.7333   -6.6789  -15.9607 C   0  0  0  0  0  0  0  0  0  0  0  0
   -2.5125   -7.6714  -15.2741 O   0  0  0  0  0  0  0  0  0  0  0  0
   -2.8957   -6.2839  -15.2127 O   0  0  0  0  0  0  0  0  0  0  0  0
    0.8679   -8.4631  -17.4274 O   0  0  0  0  0  0  0  0  0  0  0  0
    1.9777   -1.7977  -12.3557 C   0  0  0  0  0  0  0  0  0  0  0  0
    1.7789   -1.8869  -10.9850 C   0  0  0  0  0  0  0  0  0  0  0  0
    1.6623   -0.7859  -10.2423 N   0  3  0  0  0  0  0  0  0  0  0  0
    1.4710   -0.9127   -8.9157 F   0  0  0  0  0  0  0  0  0  0  0  0
    1.7323    0.4286  -10.7532 N   0  0  0  0  0  0  0  0  0  0  0  0
    1.9288    0.5903  -12.0683 C   0  0  0  0  0  0  0  0  0  0  0  0
    2.0532   -0.5170  -12.9349 C   0  0  0  0  0  0  0  0  0  0  0  0
    2.2437   -0.2899  -14.3172 C   0  0  0  0  0  0  0  0  0  0  0  0
    2.3036    1.0105  -14.8285 C   0  0  0  0  0  0  0  0  0  0  0  0
    2.1951    2.0964  -13.9748 C   0  0  0  0  0  0  0  0  0  0  0  0
    2.0330    1.8975  -12.5902 C   0  0  0  0  0  0  0  0  0  0  0  0
    1.7686    3.0175  -11.7664 N   0  0  0  0  0  0  0  0  0  0  0  0
    2.2205    3.3908  -14.4406 O   0  0  0  0  0  0  0  0  0  0  0  0
    3.0255    3.5734  -15.6298 C   0  0  1  0  0  0  0  0  0  0  0  0
    2.7805    2.6419  -16.7447 C   0  0  0  0  0  0  0  0  0  0  0  0
    2.9492    2.9183  -17.9195 O   0  0  0  0  0  0  0  0  0  0  0  0
    2.4676    1.2353  -16.2720 C   0  0  0  0  0  0  0  0  0  0  0  0
    2.3999    0.2995  -17.0530 O   0  0  0  0  0  0  0  0  0  0  0  0
    3.2995    4.9074  -15.9825 O   0  0  0  0  0  0  0  0  0  0  0  0
    4.4221    4.1074  -15.4999 C   0  0  1  0  0  0  0  0  0  0  0  0
    4.7256    4.1483  -14.0525 O   0  0  0  0  0  0  0  0  0  0  0  0
    5.3106    5.0218  -14.8395 C   0  0  0  0  0  0  0  0  0  0  0  0
    6.4834    5.3024  -14.9899 O   0  0  0  0  0  0  0  0  0  0  0  0
    5.7238   -3.3803  -10.5766 C   0  0  0  0  0  0  0  0  0  0  0  0
    4.8773   -2.9405   -9.8021 O   0  0  0  0  0  0  0  0  0  0  0  0
    7.2057   -3.2898  -10.2938 C   0  0  0  0  0  0  0  0  0  0  0  0
    7.6402   -2.4109   -9.5679 O   0  0  0  0  0  0  0  0  0  0  0  0
    8.1250   -4.2958  -10.9504 C   0  0  0  0  0  0  0  0  0  0  0  0
    9.1408   -4.6893  -10.4071 O   0  0  0  0  0  0  0  0  0  0  0  0
  1  2  1  0  0  0  0
  2  3  2  0  0  0  0
  3  4  1  0  0  0  0
  3 53  1  0  0  0  0
  4  5  1  0  0  0  0
  5  6  1  6  0  0  0
  5 49  1  0  0  0  0
  6  7  1  0  0  0  0
  7  8  2  0  0  0  0
  7 12  1  0  0  0  0
  8  9  1  0  0  0  0
  8 26  1  0  0  0  0
  9 10  1  0  0  0  0
 10 11  2  0  0  0  0
 10 21  1  0  0  0  0
 11 12  1  0  0  0  0
 11 13  1  0  0  0  0
 13 14  1  0  0  0  0
 13 19  2  0  0  0  0
 14 15  1  0  0  0  0
 15 16  2  0  0  0  0
 15 17  1  0  0  0  0
 17 18  1  0  0  0  0
 18 19  1  0  0  0  0
 18 25  1  0  0  0  0
 19 20  1  0  0  0  0
 20 21  2  0  0  0  0
 20 22  1  0  0  0  0
 22 23  1  0  0  0  0
 22 24  1  0  0  0  0
 23 24  1  0  0  0  0
 26 27  2  0  0  0  0
 26 32  1  0  0  0  0
 27 28  1  0  0  0  0
 28 29  1  0  0  0  0
 28 30  2  0  0  0  0
 30 31  1  0  0  0  0
 31 32  2  0  0  0  0
 31 36  1  0  0  0  0
 32 33  1  0  0  0  0
 33 34  2  0  0  0  0
 34 35  1  0  0  0  0
 34 42  1  0  0  0  0
 35 36  2  0  0  0  0
 35 38  1  0  0  0  0
 36 37  1  0  0  0  0
 39 38  1  1  0  0  0
 39 40  1  0  0  0  0
 39 44  1  0  0  0  0
 39 45  1  0  0  0  0
 40 41  2  0  0  0  0
 40 42  1  0  0  0  0
 42 43  2  0  0  0  0
 45 44  1  1  0  0  0
 45 46  1  0  0  0  0
 45 47  1  0  0  0  0
 46 47  1  0  0  0  0
 47 48  2  0  0  0  0
 49 50  2  0  0  0  0
 49 51  1  0  0  0  0
 51 52  2  0  0  0  0
 51 53  1  0  0  0  0
 53 54  2  0  0  0  0
M  CHG  1  28   1
M  END
$$$$