
 OpenBabel11262000513D

 54 62  0  0  1  0  0  0  0  0999 V2000
    7.8179   -6.1831   -0.0146 O   0  0  0  0  0  0  0  0  0  0  0  0
    7.4742   -5.5393    1.1473 C   0  0  0  0  0  0  0  0  0  0  0  0
    6.3763   -4.7822    1.2503 C   0  0  0  0  0  0  0  0  0  0  0  0
    5.5519   -4.5879    0.1547 O   0  0  0  0  0  0  0  0  0  0  0  0
    4.1726   -4.5739    0.4960 C   0  0  2  0  0  0  0  0  0  0  0  0
    3.3543   -4.4704   -0.6836 O   0  0  0  0  0  0  0  0  0  0  0  0
    3.4757   -5.4798   -1.6248 C   0  0  0  0  0  0  0  0  0  0  0  0
    3.2675   -5.2125   -2.9277 C   0  0  0  0  0  0  0  0  0  0  0  0
    3.2745   -6.1662   -3.9267 O   0  0  0  0  0  0  0  0  0  0  0  0
    3.3745   -7.4920   -3.5717 C   0  0  0  0  0  0  0  0  0  0  0  0
    3.5700   -7.8971   -2.2692 C   0  0  0  0  0  0  0  0  0  0  0  0
    3.7283   -6.8951   -1.1684 C   0  0  0  0  0  0  0  0  0  0  0  0
    3.6214   -9.2723   -2.0442 C   0  0  0  0  0  0  0  0  0  0  0  0
    3.7942   -9.6993   -0.7303 O   0  0  0  0  0  0  0  0  0  0  0  0
    3.7836  -11.0447   -0.4413 C   0  0  0  0  0  0  0  0  0  0  0  0
    3.8812  -11.4237    0.7803 N   0  0  0  0  0  0  0  0  0  0  0  0
    3.6740  -11.9454   -1.4318 O   0  0  0  0  0  0  0  0  0  0  0  0
    3.5592  -11.6044   -2.7284 C   0  0  0  0  0  0  0  0  0  0  0  0
    3.4842  -12.4572   -3.6012 O   0  0  0  0  0  0  0  0  0  0  0  0
    3.4950  -10.1842   -3.0728 C   0  0  0  0  0  0  0  0  0  0  0  0
    3.3048   -9.7050   -4.3752 C   0  0  0  0  0  0  0  0  0  0  0  0
    3.2302   -8.3517   -4.5938 N   0  0  0  0  0  0  0  0  0  0  0  0
    3.1786  -10.5989   -5.5957 C   0  0  0  0  0  0  0  0  0  0  0  0
    3.1571   -9.9632   -6.8876 O   0  0  0  0  0  0  0  0  0  0  0  0
    4.3246  -10.6895   -6.4554 O   0  0  0  0  0  0  0  0  0  0  0  0
    2.9934   -3.8481   -3.4202 C   0  0  0  0  0  0  0  0  0  0  0  0
    4.0834   -3.0584   -3.7915 C   0  0  0  0  0  0  0  0  0  0  0  0
    3.8675   -1.7768   -4.2441 C   0  0  0  0  0  0  0  0  0  0  0  0
    4.9055   -1.0164   -4.6031 F   0  0  0  0  0  0  0  0  0  0  0  0
    2.5894   -1.2717   -4.3298 C   0  0  0  0  0  0  0  0  0  0  0  0
    1.5006   -2.0688   -3.9651 C   0  0  0  0  0  0  0  0  0  0  0  0
    1.7083   -3.3650   -3.5151 N   0  3  0  0  0  0  0  0  0  0  0  0
    0.6200   -4.1227   -3.1834 C   0  0  0  0  0  0  0  0  0  0  0  0
   -0.6801   -3.6345   -3.2997 C   0  0  0  0  0  0  0  0  0  0  0  0
   -1.8049   -4.4907   -2.9384 C   0  0  0  0  0  0  0  0  0  0  0  0
   -1.5926   -5.5716   -2.4151 O   0  0  0  0  0  0  0  0  0  0  0  0
   -3.1966   -3.9716   -3.2365 C   0  0  0  0  0  0  0  0  0  0  0  0
   -4.1816   -4.5516   -2.8087 O   0  0  0  0  0  0  0  0  0  0  0  0
   -3.2302   -2.7598   -4.1461 C   0  0  1  0  0  0  0  0  0  0  0  0
   -2.1586   -1.8254   -3.9210 O   0  0  0  0  0  0  0  0  0  0  0  0
   -0.9136   -2.3587   -3.7566 C   0  0  0  0  0  0  0  0  0  0  0  0
    0.1855   -1.5735   -4.0656 C   0  0  0  0  0  0  0  0  0  0  0  0
   -0.0148   -0.3218   -4.5052 F   0  0  0  0  0  0  0  0  0  0  0  0
   -3.2458   -3.1846   -5.5807 C   0  0  1  0  0  0  0  0  0  0  0  0
   -2.0776   -3.9181   -6.0450 O   0  0  0  0  0  0  0  0  0  0  0  0
   -4.5034   -3.6511   -6.0506 O   0  0  0  0  0  0  0  0  0  0  0  0
   -4.0332   -2.5289   -6.6339 C   0  0  0  0  0  0  0  0  0  0  0  0
   -3.7240   -2.3311   -7.7853 O   0  0  0  0  0  0  0  0  0  0  0  0
    3.8800   -3.3683    1.3679 C   0  0  0  0  0  0  0  0  0  0  0  0
    2.9793   -2.5630    1.1798 O   0  0  0  0  0  0  0  0  0  0  0  0
    4.8251   -3.2674    2.5427 C   0  0  0  0  0  0  0  0  0  0  0  0
    4.5729   -2.5121    3.4660 O   0  0  0  0  0  0  0  0  0  0  0  0
    6.0647   -4.1454    2.5638 C   0  0  0  0  0  0  0  0  0  0  0  0
    6.6969   -4.3465    3.5854 O   0  0  0  0  0  0  0  0  0  0  0  0
  1  2  1  0  0  0  0
  2  3  2  0  0  0  0
  3  4  1  0  0  0  0
  3 53  1  0  0  0  0
  4  5  1  0  0  0  0
  5  6  1  6  0  0  0
  5 49  1  0  0  0  0
  6  7  1  0  0  0  0
  7  8  2  0  0  0  0
  7 12  1  0  0  0  0
  8  9  1  0  0  0  0
  8 26  1  0  0  0  0
  9 10  1  0  0  0  0
 10 11  2  0  0  0  0
 10 22  1  0  0  0  0
 11 12  1  0  0  0  0
 11 13  1  0  0  0  0
 13 14  1  0  0  0  0
 13 20  2  0  0  0  0
 14 15  1  0  0  0  0
 15 16  2  0  0  0  0
 15 17  1  0  0  0  0
 17 18  1  0  0  0  0
 18 19  2  0  0  0  0
 18 20  1  0  0  0  0
 20 21  1  0  0  0  0
 21 22  2  0  0  0  0
 21 23  1  0  0  0  0
 23 24  1  0  0  0  0
 23 25  1  0  0  0  0
 24 25  1  0  0  0  0
 26 27  2  0  0  0  0
 26 32  1  0  0  0  0
 27 28  1  0  0  0  0
 28 29  1  0  0  0  0
 28 30  2  0  0  0  0
 30 31  1  0  0  0  0
 31 32  2  0  0  0  0
 31 42  1  0  0  0  0
 32 33  1  0  0  0  0
 33 34  2  0  0  0  0
 34 35  1  0  0  0  0
 34 41  1  0  0  0  0
 35 36  2  0  0  0  0
 35 37  1  0  0  0  0
 37 38  2  0  0  0  0
 39 37  1  1  0  0  0
 39 40  1  0  0  0  0
 39 44  1  0  0  0  0
 40 41  1  0  0  0  0
 41 42  2  0  0  0  0
 42 43  1  0  0  0  0
 44 45  1  6  0  0  0
 44 46  1  0  0  0  0
 44 47  1  0  0  0  0
 46 47  1  0  0  0  0
 47 48  2  0  0  0  0
 49 50  2  0  0  0  0
 49 51  1  0  0  0  0
 51 52  2  0  0  0  0
 51 53  1  0  0  0  0
 53 54  2  0  0  0  0
M  CHG  1  32   1
M  END
$$$$