
 OpenBabel11142001503D

 52 60  0  0  1  0  0  0  0  0999 V2000
    3.2907    8.3963   -1.4342 O   0  0  0  0  0  0  0  0  0  0  0  0
    2.6556    7.5713   -2.3252 C   0  0  0  0  0  0  0  0  0  0  0  0
    2.3561    6.2991   -2.0386 C   0  0  0  0  0  0  0  0  0  0  0  0
    2.7162    5.7461   -0.8233 O   0  0  0  0  0  0  0  0  0  0  0  0
    1.8285    4.7312   -0.3513 C   0  0  2  0  0  0  0  0  0  0  0  0
    2.1857    4.3167    0.9698 O   0  0  0  0  0  0  0  0  0  0  0  0
    2.1229    5.3027    1.9507 C   0  0  0  0  0  0  0  0  0  0  0  0
    2.9427    5.2735    3.0214 C   0  0  0  0  0  0  0  0  0  0  0  0
    2.9085    6.2234    4.0363 O   0  0  0  0  0  0  0  0  0  0  0  0
    1.9040    7.1748    4.0363 C   0  0  0  0  0  0  0  0  0  0  0  0
    0.9938    7.2569    3.0523 C   0  0  0  0  0  0  0  0  0  0  0  0
    1.0433    6.3564    1.8608 C   0  0  0  0  0  0  0  0  0  0  0  0
   -0.1122    8.2826    3.1145 C   0  0  3  0  0  0  0  0  0  0  0  0
   -1.3511    7.5637    3.0801 O   0  0  0  0  0  0  0  0  0  0  0  0
   -2.4895    8.1506    3.4860 C   0  0  0  0  0  0  0  0  0  0  0  0
   -3.6011    7.5277    3.3429 N   0  0  0  0  0  0  0  0  0  0  0  0
   -2.4573    9.3696    4.0498 O   0  0  0  0  0  0  0  0  0  0  0  0
   -1.2429   10.0539    4.3450 C   0  0  3  0  0  0  0  0  0  0  0  0
   -0.0840    9.1353    4.3382 C   0  0  0  0  0  0  0  0  0  0  0  0
    0.8798    9.0068    5.2783 C   0  0  0  0  0  0  0  0  0  0  0  0
    1.8534    8.0368    5.1004 N   0  0  0  0  0  0  0  0  0  0  0  0
    0.9835    9.8148    6.5145 C   0  0  0  0  0  0  0  0  0  0  0  0
    2.2556   10.1247    7.1133 O   0  0  0  0  0  0  0  0  0  0  0  0
    1.4695   11.1657    6.5017 O   0  0  0  0  0  0  0  0  0  0  0  0
   -1.0279   11.0540    3.3644 O   0  0  0  0  0  0  0  0  0  0  0  0
    3.9064    4.1933    3.2690 C   0  0  0  0  0  0  0  0  0  0  0  0
    3.4087    3.1785    4.0091 N   0  0  0  0  0  0  0  0  0  0  0  0
    4.1843    2.1842    4.3332 N   0  0  0  0  0  0  0  0  0  0  0  0
    5.4469    2.1456    3.9889 N   0  0  0  0  0  0  0  0  0  0  0  0
    5.9773    3.1297    3.2573 C   0  0  0  0  0  0  0  0  0  0  0  0
    5.2278    4.2244    2.8362 C   0  0  0  0  0  0  0  0  0  0  0  0
    5.8360    5.2385    2.0497 C   0  0  0  0  0  0  0  0  0  0  0  0
    7.1818    5.1297    1.6921 C   0  0  0  0  0  0  0  0  0  0  0  0
    7.9253    4.0353    2.1123 C   0  0  0  0  0  0  0  0  0  0  0  0
    7.3206    3.0596    2.9050 C   0  0  0  0  0  0  0  0  0  0  0  0
    9.2390    3.8245    1.8040 O   0  0  0  0  0  0  0  0  0  0  0  0
    9.7425    4.5200    0.6554 C   0  0  2  0  0  0  0  0  0  0  0  0
    9.2902    5.9547    0.5628 C   0  0  0  0  0  0  0  0  0  0  0  0
   10.0047    6.8934    0.2423 O   0  0  0  0  0  0  0  0  0  0  0  0
    7.8250    6.1586    0.8658 C   0  0  0  0  0  0  0  0  0  0  0  0
    7.2161    7.1215    0.4293 O   0  0  0  0  0  0  0  0  0  0  0  0
    9.4328    3.7520   -0.5974 C   0  0  1  0  0  0  0  0  0  0  0  0
    8.0460    3.4959   -0.8982 O   0  0  0  0  0  0  0  0  0  0  0  0
   10.2323    4.0540   -1.7466 O   0  0  0  0  0  0  0  0  0  0  0  0
   10.4350    2.8648   -1.1666 C   0  0  0  0  0  0  0  0  0  0  0  0
   11.4428    2.3764   -0.7174 O   0  0  0  0  0  0  0  0  0  0  0  0
    1.8756    3.5670   -1.3260 C   0  0  0  0  0  0  0  0  0  0  0  0
    2.1049    2.3969   -1.0648 O   0  0  0  0  0  0  0  0  0  0  0  0
    1.5689    4.0103   -2.7368 C   0  0  0  0  0  0  0  0  0  0  0  0
    1.2235    3.1999   -3.5815 O   0  0  0  0  0  0  0  0  0  0  0  0
    1.6687    5.4848   -3.0791 C   0  0  0  0  0  0  0  0  0  0  0  0
    1.1930    5.9439   -4.1037 O   0  0  0  0  0  0  0  0  0  0  0  0
  1  2  1  0  0  0  0
  2  3  2  0  0  0  0
  3  4  1  0  0  0  0
  3 51  1  0  0  0  0
  4  5  1  0  0  0  0
  5  6  1  1  0  0  0
  5 47  1  0  0  0  0
  6  7  1  0  0  0  0
  7  8  2  0  0  0  0
  7 12  1  0  0  0  0
  8  9  1  0  0  0  0
  8 26  1  0  0  0  0
  9 10  1  0  0  0  0
 10 11  2  0  0  0  0
 10 21  1  0  0  0  0
 11 12  1  0  0  0  0
 11 13  1  0  0  0  0
 13 14  1  0  0  0  0
 13 19  1  0  0  0  0
 14 15  1  0  0  0  0
 15 16  2  0  0  0  0
 15 17  1  0  0  0  0
 17 18  1  0  0  0  0
 18 19  1  0  0  0  0
 18 25  1  0  0  0  0
 19 20  2  0  0  0  0
 20 21  1  0  0  0  0
 20 22  1  0  0  0  0
 22 23  1  0  0  0  0
 22 24  1  0  0  0  0
 23 24  1  0  0  0  0
 26 27  2  0  0  0  0
 26 31  1  0  0  0  0
 27 28  1  0  0  0  0
 28 29  2  0  0  0  0
 29 30  1  0  0  0  0
 30 31  2  0  0  0  0
 30 35  1  0  0  0  0
 31 32  1  0  0  0  0
 32 33  2  0  0  0  0
 33 34  1  0  0  0  0
 33 40  1  0  0  0  0
 34 35  2  0  0  0  0
 34 36  1  0  0  0  0
 37 36  1  1  0  0  0
 37 38  1  0  0  0  0
 37 42  1  0  0  0  0
 38 39  2  0  0  0  0
 38 40  1  0  0  0  0
 40 41  2  0  0  0  0
 42 43  1  6  0  0  0
 42 44  1  0  0  0  0
 42 45  1  0  0  0  0
 44 45  1  0  0  0  0
 45 46  2  0  0  0  0
 47 48  2  0  0  0  0
 47 49  1  0  0  0  0
 49 50  2  0  0  0  0
 49 51  1  0  0  0  0
 51 52  2  0  0  0  0
M  END
$$$$