
 OpenBabel11192015293D

 52 60  0  0  1  0  0  0  0  0999 V2000
    1.6129    9.1326   -1.4181 O   0  0  0  0  0  0  0  0  0  0  0  0
    1.6597    8.1254   -2.3459 C   0  0  0  0  0  0  0  0  0  0  0  0
    2.0368    6.8784   -2.0412 C   0  0  0  0  0  0  0  0  0  0  0  0
    2.4799    6.5379   -0.7779 O   0  0  0  0  0  0  0  0  0  0  0  0
    1.9007    5.3332   -0.2759 C   0  0  2  0  0  0  0  0  0  0  0  0
    2.4423    5.0100    1.0167 O   0  0  0  0  0  0  0  0  0  0  0  0
    2.2644    5.9571    2.0188 C   0  0  0  0  0  0  0  0  0  0  0  0
    3.1539    6.0855    3.0271 C   0  0  0  0  0  0  0  0  0  0  0  0
    3.0112    7.0037    4.0640 O   0  0  0  0  0  0  0  0  0  0  0  0
    1.9101    7.8497    4.0658 C   0  0  0  0  0  0  0  0  0  0  0  0
    0.9501    7.7716    3.1295 C   0  0  0  0  0  0  0  0  0  0  0  0
    1.0145    6.7971    2.0043 C   0  0  0  0  0  0  0  0  0  0  0  0
   -0.2174    8.7209    3.1351 C   0  0  3  0  0  0  0  0  0  0  0  0
   -1.4077    7.9441    3.2277 O   0  0  0  0  0  0  0  0  0  0  0  0
   -2.5997    8.5442    3.4656 C   0  0  0  0  0  0  0  0  0  0  0  0
   -3.6536    7.9434    3.3036 O   0  0  0  0  0  0  0  0  0  0  0  0
   -2.5796    9.8246    3.9101 O   0  0  0  0  0  0  0  0  0  0  0  0
   -1.3915   10.5606    4.1741 C   0  0  3  0  0  0  0  0  0  0  0  0
   -0.2017    9.6932    4.2561 C   0  0  0  0  0  0  0  0  0  0  0  0
    0.7942    9.7208    5.1701 C   0  0  0  0  0  0  0  0  0  0  0  0
    1.8271    8.7991    5.0550 N   0  0  0  0  0  0  0  0  0  0  0  0
    0.8807   10.6893    6.2869 C   0  0  0  0  0  0  0  0  0  0  0  0
    0.2608   10.4334    7.5564 O   0  0  0  0  0  0  0  0  0  0  0  0
    1.6977   10.4541    7.4463 O   0  0  0  0  0  0  0  0  0  0  0  0
   -1.1783   11.4756    3.1103 O   0  0  0  0  0  0  0  0  0  0  0  0
    4.3513    5.2342    3.1352 C   0  0  0  0  0  0  0  0  0  0  0  0
    4.2277    4.0476    3.8485 C   0  0  0  0  0  0  0  0  0  0  0  0
    5.2293    3.1606    3.9743 N   0  0  0  0  0  0  0  0  0  0  0  0
    6.4129    3.4175    3.3625 N   0  0  0  0  0  0  0  0  0  0  0  0
    6.5892    4.5577    2.6498 C   0  0  0  0  0  0  0  0  0  0  0  0
    5.5861    5.5296    2.5135 C   0  0  0  0  0  0  0  0  0  0  0  0
    5.8133    6.7335    1.7919 C   0  0  0  0  0  0  0  0  0  0  0  0
    6.9968    7.0587    1.0890 C   0  0  0  0  0  0  0  0  0  0  0  0
    8.1074    6.2227    0.9941 C   0  0  0  0  0  0  0  0  0  0  0  0
    8.2059    4.7018    1.9064 S   0  3  0  0  0  0  0  0  0  0  0  0
    9.2099    6.5047    0.2309 O   0  0  0  0  0  0  0  0  0  0  0  0
    9.0705    7.4816   -0.8049 C   0  0  2  0  0  0  0  0  0  0  0  0
    8.2990    8.6908   -0.3664 C   0  0  0  0  0  0  0  0  0  0  0  0
    8.5930    9.8464   -0.6339 O   0  0  0  0  0  0  0  0  0  0  0  0
    7.0461    8.3637    0.4028 C   0  0  0  0  0  0  0  0  0  0  0  0
    6.1160    9.1548    0.4332 O   0  0  0  0  0  0  0  0  0  0  0  0
    8.4943    6.8785   -2.0548 C   0  0  1  0  0  0  0  0  0  0  0  0
    7.1847    6.2766   -1.9552 O   0  0  0  0  0  0  0  0  0  0  0  0
    8.6764    7.6357   -3.2556 O   0  0  0  0  0  0  0  0  0  0  0  0
    9.3657    6.4861   -3.1574 C   0  0  0  0  0  0  0  0  0  0  0  0
   10.5571    6.2849   -3.2285 O   0  0  0  0  0  0  0  0  0  0  0  0
    2.1273    4.1252   -1.1793 C   0  0  0  0  0  0  0  0  0  0  0  0
    1.9663    2.9554   -0.8617 O   0  0  0  0  0  0  0  0  0  0  0  0
    2.4679    4.4965   -2.6005 C   0  0  0  0  0  0  0  0  0  0  0  0
    3.1169    3.7465   -3.3111 O   0  0  0  0  0  0  0  0  0  0  0  0
    2.0366    5.8505   -3.1110 C   0  0  0  0  0  0  0  0  0  0  0  0
    1.7076    6.0406   -4.2677 O   0  0  0  0  0  0  0  0  0  0  0  0
  1  2  1  0  0  0  0
  2  3  2  0  0  0  0
  3  4  1  0  0  0  0
  3 51  1  0  0  0  0
  4  5  1  0  0  0  0
  5  6  1  1  0  0  0
  5 47  1  0  0  0  0
  6  7  1  0  0  0  0
  7  8  2  0  0  0  0
  7 12  1  0  0  0  0
  8  9  1  0  0  0  0
  8 26  1  0  0  0  0
  9 10  1  0  0  0  0
 10 11  2  0  0  0  0
 10 21  1  0  0  0  0
 11 12  1  0  0  0  0
 11 13  1  0  0  0  0
 13 14  1  0  0  0  0
 13 19  1  0  0  0  0
 14 15  1  0  0  0  0
 15 16  2  0  0  0  0
 15 17  1  0  0  0  0
 17 18  1  0  0  0  0
 18 19  1  0  0  0  0
 18 25  1  0  0  0  0
 19 20  2  0  0  0  0
 20 21  1  0  0  0  0
 20 22  1  0  0  0  0
 22 23  1  0  0  0  0
 22 24  1  0  0  0  0
 23 24  1  0  0  0  0
 26 27  2  0  0  0  0
 26 31  1  0  0  0  0
 27 28  1  0  0  0  0
 28 29  2  0  0  0  0
 29 30  1  0  0  0  0
 30 31  2  0  0  0  0
 30 35  1  0  0  0  0
 31 32  1  0  0  0  0
 32 33  2  0  0  0  0
 33 34  1  0  0  0  0
 33 40  1  0  0  0  0
 34 35  2  0  0  0  0
 34 36  1  0  0  0  0
 37 36  1  1  0  0  0
 37 38  1  0  0  0  0
 37 42  1  0  0  0  0
 38 39  2  0  0  0  0
 38 40  1  0  0  0  0
 40 41  2  0  0  0  0
 42 43  1  1  0  0  0
 42 44  1  0  0  0  0
 42 45  1  0  0  0  0
 44 45  1  0  0  0  0
 45 46  2  0  0  0  0
 47 48  2  0  0  0  0
 47 49  1  0  0  0  0
 49 50  2  0  0  0  0
 49 51  1  0  0  0  0
 51 52  2  0  0  0  0
M  CHG  1  35   1
M  END
$$$$