
 OpenBabel09252009403D

 51 59  0  0  1  0  0  0  0  0999 V2000
    6.3723    4.2347   -6.8593 O   0  0  0  0  0  0  0  0  0  0  0  0
    6.1845    2.8833   -6.7239 C   0  0  0  0  0  0  0  0  0  0  0  0
    5.3289    2.3203   -5.8631 C   0  0  0  0  0  0  0  0  0  0  0  0
    4.5721    3.0988   -5.0058 O   0  0  0  0  0  0  0  0  0  0  0  0
    3.2170    2.6811   -4.8764 C   0  0  2  0  0  0  0  0  0  0  0  0
    2.5604    3.4004   -3.8157 O   0  0  0  0  0  0  0  0  0  0  0  0
    2.4873    4.7813   -3.9311 C   0  0  0  0  0  0  0  0  0  0  0  0
    2.4715    5.5699   -2.8343 C   0  0  0  0  0  0  0  0  0  0  0  0
    2.3442    6.9558   -2.8857 O   0  0  0  0  0  0  0  0  0  0  0  0
    2.2386    7.5795   -4.1211 C   0  0  0  0  0  0  0  0  0  0  0  0
    2.2405    6.8745   -5.2627 C   0  0  0  0  0  0  0  0  0  0  0  0
    2.3517    5.3899   -5.3041 C   0  0  0  0  0  0  0  0  0  0  0  0
    2.1756    7.6190   -6.5481 C   0  0  0  0  0  0  0  0  0  0  0  0
    2.2037    6.9822   -7.6720 N   0  0  0  0  0  0  0  0  0  0  0  0
    2.1573    7.6978   -8.8518 C   0  0  0  0  0  0  0  0  0  0  0  0
    2.1729    7.0713   -9.9033 O   0  0  0  0  0  0  0  0  0  0  0  0
    2.0959    9.0770   -8.9029 N   0  0  0  0  0  0  0  0  0  0  0  0
    2.0610    9.7364   -7.7967 C   0  0  0  0  0  0  0  0  0  0  0  0
    2.0975    9.0944   -6.4825 C   0  0  0  0  0  0  0  0  0  0  0  0
    2.0864    9.7149   -5.2849 C   0  0  0  0  0  0  0  0  0  0  0  0
    2.1593    8.9496   -4.1277 N   0  0  0  0  0  0  0  0  0  0  0  0
    2.0095   11.1840   -5.0962 C   0  0  0  0  0  0  0  0  0  0  0  0
    0.7483   11.8616   -4.9872 O   0  0  0  0  0  0  0  0  0  0  0  0
    1.6195   11.7741   -3.8430 O   0  0  0  0  0  0  0  0  0  0  0  0
    2.6057    5.0340   -1.4679 C   0  0  0  0  0  0  0  0  0  0  0  0
    1.4367    4.7183   -0.8721 N   0  0  0  0  0  0  0  0  0  0  0  0
    1.5313    4.2035    0.3568 C   0  0  0  0  0  0  0  0  0  0  0  0
    2.6656    3.9792    1.0338 N   0  0  0  0  0  0  0  0  0  0  0  0
    3.8130    4.2988    0.4294 C   0  0  0  0  0  0  0  0  0  0  0  0
    3.8591    4.8541   -0.8571 C   0  0  0  0  0  0  0  0  0  0  0  0
    5.1143    5.1806   -1.4289 C   0  0  0  0  0  0  0  0  0  0  0  0
    6.2964    4.9259   -0.7294 C   0  0  0  0  0  0  0  0  0  0  0  0
    6.2505    4.3458    0.5284 C   0  0  0  0  0  0  0  0  0  0  0  0
    5.0087    4.0601    1.1008 C   0  0  0  0  0  0  0  0  0  0  0  0
    7.3479    4.0292    1.2766 O   0  0  0  0  0  0  0  0  0  0  0  0
    8.6006    3.9436    0.5835 C   0  0  2  0  0  0  0  0  0  0  0  0
    8.8140    4.9906   -0.4791 C   0  0  0  0  0  0  0  0  0  0  0  0
    9.8786    5.5459   -0.7096 O   0  0  0  0  0  0  0  0  0  0  0  0
    7.5926    5.2754   -1.3181 C   0  0  0  0  0  0  0  0  0  0  0  0
    7.6826    5.7682   -2.4314 O   0  0  0  0  0  0  0  0  0  0  0  0
    8.8055    2.5590    0.0353 C   0  0  1  0  0  0  0  0  0  0  0  0
    7.8272    2.0724   -0.9103 O   0  0  0  0  0  0  0  0  0  0  0  0
   10.1490    2.1985   -0.2920 O   0  0  0  0  0  0  0  0  0  0  0  0
    9.6007    1.5893    0.7698 C   0  0  0  0  0  0  0  0  0  0  0  0
    9.9779    1.5507    1.9263 O   0  0  0  0  0  0  0  0  0  0  0  0
    3.0306    1.2164   -4.5034 C   0  0  0  0  0  0  0  0  0  0  0  0
    1.9918    0.6938   -3.9194 N   0  0  0  0  0  0  0  0  0  0  0  0
    4.1385    0.3156   -4.9471 C   0  0  0  0  0  0  0  0  0  0  0  0
    4.1286   -0.9437   -4.6184 N   0  0  0  0  0  0  0  0  0  0  0  0
    5.2588    0.8361   -5.8001 C   0  0  0  0  0  0  0  0  0  0  0  0
    6.0518    0.0022   -6.3905 N   0  0  0  0  0  0  0  0  0  0  0  0
  1  2  1  0  0  0  0
  2  3  2  0  0  0  0
  3  4  1  0  0  0  0
  3 50  1  0  0  0  0
  4  5  1  0  0  0  0
  5  6  1  1  0  0  0
  5 46  1  0  0  0  0
  6  7  1  0  0  0  0
  7  8  2  0  0  0  0
  7 12  1  0  0  0  0
  8  9  1  0  0  0  0
  8 25  1  0  0  0  0
  9 10  1  0  0  0  0
 10 11  2  0  0  0  0
 10 21  1  0  0  0  0
 11 12  1  0  0  0  0
 11 13  1  0  0  0  0
 13 14  2  0  0  0  0
 13 19  1  0  0  0  0
 14 15  1  0  0  0  0
 15 16  2  0  0  0  0
 15 17  1  0  0  0  0
 17 18  2  0  0  0  0
 18 19  1  0  0  0  0
 19 20  2  0  0  0  0
 20 21  1  0  0  0  0
 20 22  1  0  0  0  0
 22 23  1  0  0  0  0
 22 24  1  0  0  0  0
 23 24  1  0  0  0  0
 25 26  2  0  0  0  0
 25 30  1  0  0  0  0
 26 27  1  0  0  0  0
 27 28  2  0  0  0  0
 28 29  1  0  0  0  0
 29 30  2  0  0  0  0
 29 34  1  0  0  0  0
 30 31  1  0  0  0  0
 31 32  2  0  0  0  0
 32 33  1  0  0  0  0
 32 39  1  0  0  0  0
 33 34  2  0  0  0  0
 33 35  1  0  0  0  0
 36 35  1  6  0  0  0
 36 37  1  0  0  0  0
 36 41  1  0  0  0  0
 37 38  2  0  0  0  0
 37 39  1  0  0  0  0
 39 40  2  0  0  0  0
 41 42  1  6  0  0  0
 41 43  1  0  0  0  0
 41 44  1  0  0  0  0
 43 44  1  0  0  0  0
 44 45  2  0  0  0  0
 46 47  2  0  0  0  0
 46 48  1  0  0  0  0
 48 49  2  0  0  0  0
 48 50  1  0  0  0  0
 50 51  2  0  0  0  0
M  END
$$$$