
 OpenBabel10242017303D

 51 58  0  0  1  0  0  0  0  0999 V2000
   -2.3031    0.1475    6.7734 O   0  0  0  0  0  0  0  0  0  0  0  0
   -2.2774    0.6931    5.5170 C   0  0  0  0  0  0  0  0  0  0  0  0
   -1.1760    0.7344    4.7557 C   0  0  0  0  0  0  0  0  0  0  0  0
    0.0424    0.2776    5.2198 O   0  0  0  0  0  0  0  0  0  0  0  0
    0.9561   -0.2648    4.2699 C   0  0  2  0  0  0  0  0  0  0  0  0
    2.2830   -0.3693    4.8174 O   0  0  0  0  0  0  0  0  0  0  0  0
    2.4595   -1.1718    5.9353 C   0  0  0  0  0  0  0  0  0  0  0  0
    3.4032   -0.9068    6.8747 C   0  0  0  0  0  0  0  0  0  0  0  0
    3.6088   -1.7617    7.9644 O   0  0  0  0  0  0  0  0  0  0  0  0
    3.0343   -3.0222    7.9724 C   0  0  0  0  0  0  0  0  0  0  0  0
    2.0957   -3.3578    7.0804 C   0  0  0  0  0  0  0  0  0  0  0  0
    1.6433   -2.4380    6.0048 C   0  0  0  0  0  0  0  0  0  0  0  0
    1.4621   -4.6965    7.1824 C   0  0  0  0  0  0  0  0  0  0  0  0
    0.4915   -4.9983    6.3848 N   0  0  0  0  0  0  0  0  0  0  0  0
   -0.1250   -6.2227    6.5111 C   0  0  0  0  0  0  0  0  0  0  0  0
   -1.1274   -6.4326    5.8406 O   0  0  0  0  0  0  0  0  0  0  0  0
    0.3383   -7.2137    7.3485 N   0  0  0  0  0  0  0  0  0  0  0  0
    1.3066   -6.9438    8.1583 C   0  0  0  0  0  0  0  0  0  0  0  0
    1.9682   -5.6318    8.2177 C   0  0  0  0  0  0  0  0  0  0  0  0
    2.9352   -5.1913    9.0488 C   0  0  0  0  0  0  0  0  0  0  0  0
    3.4712   -3.9094    8.9276 N   0  0  0  0  0  0  0  0  0  0  0  0
    3.4518   -6.0694   10.1454 C   0  0  0  0  0  0  0  0  0  0  0  0
    2.8420   -7.0055   10.6296 O   0  0  0  0  0  0  0  0  0  0  0  0
    4.6650   -5.6763   10.5907 O   0  0  0  0  0  0  0  0  0  0  0  0
    4.2773    0.3092    6.8807 C   0  0  0  0  0  0  0  0  0  0  0  0
    3.7019    1.4072    6.3385 N   0  0  0  0  0  0  0  0  0  0  0  0
    4.4222    2.5285    6.3243 C   0  0  0  0  0  0  0  0  0  0  0  0
    5.6436    2.6792    6.8408 N   0  0  0  0  0  0  0  0  0  0  0  0
    6.2025    1.6073    7.3996 C   0  0  0  0  0  0  0  0  0  0  0  0
    5.5799    0.3508    7.4458 C   0  0  0  0  0  0  0  0  0  0  0  0
    6.3061   -0.7187    8.0434 C   0  0  0  0  0  0  0  0  0  0  0  0
    7.5580   -0.5237    8.6494 C   0  0  0  0  0  0  0  0  0  0  0  0
    8.1413    0.7359    8.6199 C   0  0  0  0  0  0  0  0  0  0  0  0
    7.4619    1.7727    7.9677 C   0  0  0  0  0  0  0  0  0  0  0  0
    9.7014    1.1167    9.3847 S   0  0  0  0  0  0  0  0  0  0  0  0
    9.7096   -0.0970   10.7296 C   0  0  2  0  0  0  0  0  0  0  0  0
    9.4321   -1.4733   10.1977 C   0  0  0  0  0  0  0  0  0  0  0  0
   10.1260   -2.4446   10.4823 O   0  0  0  0  0  0  0  0  0  0  0  0
    8.1840   -1.6690    9.3479 C   0  0  0  0  0  0  0  0  0  0  0  0
    7.6809   -2.7855    9.2663 O   0  0  0  0  0  0  0  0  0  0  0  0
    8.7919    0.2692   11.8506 C   0  0  1  0  0  0  0  0  0  0  0  0
    7.3718    0.3066   11.5551 O   0  0  0  0  0  0  0  0  0  0  0  0
    9.1359   -0.3305   13.0953 O   0  0  0  0  0  0  0  0  0  0  0  0
    9.2138    1.0024   13.0361 C   0  0  0  0  0  0  0  0  0  0  0  0
    8.6099    1.8408   13.6903 O   0  0  0  0  0  0  0  0  0  0  0  0
    1.0727    0.5269    2.9748 C   0  0  0  0  0  0  0  0  0  0  0  0
    2.0883    0.8076    2.3570 O   0  0  0  0  0  0  0  0  0  0  0  0
   -0.2712    0.9004    2.4342 C   0  0  0  0  0  0  0  0  0  0  0  0
   -0.5314    0.7443    1.2521 O   0  0  0  0  0  0  0  0  0  0  0  0
   -1.3299    1.3379    3.4063 C   0  0  0  0  0  0  0  0  0  0  0  0
   -2.2222    2.1035    3.0823 O   0  0  0  0  0  0  0  0  0  0  0  0
  1  2  1  0  0  0  0
  2  3  2  0  0  0  0
  3  4  1  0  0  0  0
  3 50  1  0  0  0  0
  4  5  1  0  0  0  0
  5  6  1  1  0  0  0
  5 46  1  0  0  0  0
  6  7  1  0  0  0  0
  7  8  2  0  0  0  0
  7 12  1  0  0  0  0
  8  9  1  0  0  0  0
  8 25  1  0  0  0  0
  9 10  1  0  0  0  0
 10 11  2  0  0  0  0
 10 21  1  0  0  0  0
 11 12  1  0  0  0  0
 11 13  1  0  0  0  0
 13 14  2  0  0  0  0
 13 19  1  0  0  0  0
 14 15  1  0  0  0  0
 15 16  2  0  0  0  0
 15 17  1  0  0  0  0
 17 18  2  0  0  0  0
 18 19  1  0  0  0  0
 19 20  2  0  0  0  0
 20 21  1  0  0  0  0
 20 22  1  0  0  0  0
 22 23  2  0  0  0  0
 22 24  1  0  0  0  0
 25 26  2  0  0  0  0
 25 30  1  0  0  0  0
 26 27  1  0  0  0  0
 27 28  2  0  0  0  0
 28 29  1  0  0  0  0
 29 30  2  0  0  0  0
 29 34  1  0  0  0  0
 30 31  1  0  0  0  0
 31 32  2  0  0  0  0
 32 33  1  0  0  0  0
 32 39  1  0  0  0  0
 33 34  2  0  0  0  0
 33 35  1  0  0  0  0
 36 35  1  6  0  0  0
 36 37  1  0  0  0  0
 36 41  1  0  0  0  0
 37 38  2  0  0  0  0
 37 39  1  0  0  0  0
 39 40  2  0  0  0  0
 41 42  1  6  0  0  0
 41 43  1  0  0  0  0
 41 44  1  0  0  0  0
 43 44  1  0  0  0  0
 44 45  2  0  0  0  0
 46 47  2  0  0  0  0
 46 48  1  0  0  0  0
 48 49  2  0  0  0  0
 48 50  1  0  0  0  0
 50 51  2  0  0  0  0
M  END
$$$$