
 OpenBabel11242003153D

 93108  0  0  1  0  0  0  0  0999 V2000
    6.3501   -2.4183   -3.1349 F   0  0  0  0  0  0  0  0  0  0  0  0
    6.4167   -1.1160   -3.5381 C   0  0  3  0  0  0  0  0  0  0  0  0
    7.3916   -0.3793   -2.6126 C   0  0  0  0  0  0  0  0  0  0  0  0
    7.0370    1.1129   -2.5938 C   0  0  3  0  0  0  0  0  0  0  0  0
    8.1725    1.9756   -2.0619 C   0  0  0  0  0  0  0  0  0  0  0  0
    8.0730    2.1300   -0.5638 C   0  0  0  0  0  0  0  0  0  0  0  0
    6.7333    2.7809   -0.2074 C   0  0  3  0  0  0  0  0  0  0  0  0
    5.5386    1.9382   -0.6267 C   0  0  0  0  0  0  0  0  0  0  0  0
    5.7128    1.1728   -1.8309 C   0  0  0  0  0  0  0  0  0  0  0  0
    4.7041    0.3194   -2.3373 C   0  0  0  0  0  0  0  0  0  0  0  0
    5.0024   -0.4796   -3.6134 C   0  0  3  0  0  0  0  0  0  0  0  0
    3.9072   -1.4872   -4.0829 C   0  0  3  0  0  0  0  0  0  0  0  0
    2.5184   -0.9337   -3.6678 C   0  0  0  0  0  0  0  0  0  0  0  0
    2.4093   -0.6545   -2.1642 C   0  0  0  0  0  0  0  0  0  0  0  0
    3.4838    0.2750   -1.6799 C   0  0  0  0  0  0  0  0  0  0  0  0
    3.2936    1.0544   -0.5101 C   0  0  0  0  0  0  0  0  0  0  0  0
    4.2861    1.9034    0.0688 C   0  0  0  0  0  0  0  0  0  0  0  0
    3.9195    2.6875    1.3278 C   0  0  0  0  0  0  0  0  0  0  0  0
    2.5928    3.1626    1.5356 C   0  0  0  0  0  0  0  0  0  0  0  0
    2.1996    3.9423    2.6646 C   0  0  0  0  0  0  0  0  0  0  0  0
    0.8216    4.6007    2.6885 C   0  0  3  0  0  0  0  0  0  0  0  0
    0.8511    5.7302    1.6391 C   0  0  0  0  0  0  0  0  0  0  0  0
   -0.4234    6.5562    1.6088 C   0  0  0  0  0  0  0  0  0  0  0  0
   -0.7529    7.1403    2.9860 C   0  0  3  0  0  0  0  0  0  0  0  0
   -0.8923    5.9926    4.0141 C   0  0  3  0  0  0  0  0  0  0  0  0
    0.3947    5.1207    4.0914 C   0  0  3  0  0  0  0  0  0  0  0  0
    1.5668    5.8332    4.7928 C   0  0  0  0  0  0  0  0  0  0  0  0
    2.7735    4.9076    4.9636 C   0  0  3  0  0  0  0  0  0  0  0  0
    3.1330    4.2204    3.6669 C   0  0  0  0  0  0  0  0  0  0  0  0
    4.4371    3.7646    3.4942 C   0  0  0  0  0  0  0  0  0  0  0  0
    4.7940    2.9903    2.3863 C   0  0  0  0  0  0  0  0  0  0  0  0
    6.0154    2.4361    2.4751 F   0  0  0  0  0  0  0  0  0  0  0  0
    2.5476    3.8551    6.0615 C   0  0  0  0  0  0  0  0  0  0  0  0
   -1.3204    6.4961    5.3983 C   0  0  0  0  0  0  0  0  0  0  0  0
   -2.0088    8.0088    2.8789 C   0  0  0  0  0  0  0  0  0  0  0  0
    3.9872   -1.7865   -5.6467 C   0  0  3  0  0  0  0  0  0  0  0  0
    5.2930   -2.3680   -6.0046 O   0  0  0  0  0  0  0  0  0  0  0  0
    5.3374   -3.6467   -6.5308 C   0  0  0  0  0  0  0  0  0  0  0  0
    4.2919   -4.5331   -6.3088 C   0  0  0  0  0  0  0  0  0  0  0  0
    3.0158   -4.0526   -5.6823 C   0  0  3  0  0  0  0  0  0  0  0  0
    2.7802   -2.6136   -6.1841 C   0  0  3  0  0  0  0  0  0  0  0  0
    2.7886   -2.5254   -7.6406 O   0  0  0  0  0  0  0  0  0  0  0  0
    1.6252   -2.6825   -8.3473 C   0  0  0  0  0  0  0  0  0  0  0  0
    1.7619   -2.6723   -9.7438 C   0  0  0  0  0  0  0  0  0  0  0  0
    0.6589   -2.8964  -10.5785 C   0  0  0  0  0  0  0  0  0  0  0  0
   -0.5953   -3.1300  -10.0233 C   0  0  0  0  0  0  0  0  0  0  0  0
   -0.7509   -3.0850   -8.6414 C   0  0  0  0  0  0  0  0  0  0  0  0
    0.3500   -2.8479   -7.8094 C   0  0  0  0  0  0  0  0  0  0  0  0
    1.9359   -4.9423   -5.9904 O   0  0  0  0  0  0  0  0  0  0  0  0
    4.4039   -5.8642   -6.7926 C   0  0  0  0  0  0  0  0  0  0  0  0
    5.4095   -6.2908   -7.6592 C   0  0  0  0  0  0  0  0  0  0  0  0
    6.4600   -5.3546   -7.9337 C   0  0  0  0  0  0  0  0  0  0  0  0
    6.4076   -4.0715   -7.3068 C   0  0  0  0  0  0  0  0  0  0  0  0
    7.4294   -3.2288   -7.5650 F   0  0  0  0  0  0  0  0  0  0  0  0
    7.4375   -5.7715   -8.8381 C   0  0  0  0  0  0  0  0  0  0  0  0
    8.5234   -5.0067   -9.1505 O   0  0  0  0  0  0  0  0  0  0  0  0
    7.3873   -7.0136   -9.4983 C   0  0  0  0  0  0  0  0  0  0  0  0
    6.3894   -7.9819   -9.2286 C   0  0  0  0  0  0  0  0  0  0  0  0
    5.4298   -7.5792   -8.2943 C   0  0  0  0  0  0  0  0  0  0  0  0
    4.4342   -8.5207   -8.0362 O   0  0  0  0  0  0  0  0  0  0  0  0
    6.4736   -9.3317   -9.8807 C   0  0  0  0  0  0  0  0  0  0  0  0
    7.7453   -9.9045  -10.1028 C   0  0  0  0  0  0  0  0  0  0  0  0
    8.0152  -11.2186  -10.6056 C   0  0  0  0  0  0  0  0  0  0  0  0
    9.3260  -11.9274  -10.8789 C   0  0  0  0  0  0  0  0  0  0  0  0
    9.2567  -13.2070  -11.4353 C   0  0  0  0  0  0  0  0  0  0  0  0
   10.3824  -13.9333  -11.6946 O   0  0  0  0  0  0  0  0  0  0  0  0
    8.0117  -13.7524  -11.7116 C   0  0  0  0  0  0  0  0  0  0  0  0
    6.8539  -13.1313  -11.4571 N   0  0  0  0  0  0  0  0  0  0  0  0
    6.8257  -11.9164  -10.9215 N   0  3  0  0  0  0  0  0  0  0  0  0
    5.5845  -11.3779  -10.7481 N   0  3  0  0  0  0  0  0  0  0  0  0
    5.3659  -10.1380  -10.2506 C   0  0  0  0  0  0  0  0  0  0  0  0
    4.0868   -9.6852  -10.2580 O   0  0  0  0  0  0  0  0  0  0  0  0
    4.4063  -12.0739  -11.0845 O   0  0  0  0  0  0  0  0  0  0  0  0
   10.8225  -11.3476  -10.5731 N   0  3  0  0  0  0  0  0  0  0  0  0
   11.9972  -11.6952  -11.3072 N   0  3  0  0  0  0  0  0  0  0  0  0
   12.0438  -12.3803  -12.5254 O   0  0  0  0  0  0  0  0  0  0  0  0
   13.2503  -11.1897  -11.0018 C   0  0  0  0  0  0  0  0  0  0  0  0
   13.5205  -10.2723   -9.9614 C   0  0  0  0  0  0  0  0  0  0  0  0
   12.4085   -9.9227   -9.1910 C   0  0  0  0  0  0  0  0  0  0  0  0
   11.0819  -10.4879   -9.5031 C   0  0  0  0  0  0  0  0  0  0  0  0
   10.0701  -10.2035   -8.6181 O   0  0  0  0  0  0  0  0  0  0  0  0
   12.6212   -9.0688   -8.1631 N   0  0  0  0  0  0  0  0  0  0  0  0
   13.8295   -8.5465   -7.8540 N   0  3  0  0  0  0  0  0  0  0  0  0
   14.9673   -8.8221   -8.5751 C   0  0  0  0  0  0  0  0  0  0  0  0
   14.7899   -9.6953   -9.6496 N   0  3  0  0  0  0  0  0  0  0  0  0
   15.8862   -9.9716  -10.4292 N   0  0  0  0  0  0  0  0  0  0  0  0
   17.1101   -9.4205  -10.1794 N   0  3  0  0  0  0  0  0  0  0  0  0
   18.2660   -9.7214  -11.0967 C   0  0  0  0  0  0  0  0  0  0  0  0
   17.2834   -8.6012   -9.1254 C   0  0  0  0  0  0  0  0  0  0  0  0
   16.2248   -8.3140   -8.3399 N   0  3  0  0  0  0  0  0  0  0  0  0
   16.4018   -7.4551   -7.2421 O   0  0  0  0  0  0  0  0  0  0  0  0
   13.9308   -7.6792   -6.7706 O   0  0  0  0  0  0  0  0  0  0  0  0
    6.6436    4.0675   -0.8114 O   0  0  0  0  0  0  0  0  0  0  0  0
  1  2  1  0  0  0  0
  2  3  1  0  0  0  0
  2 11  1  0  0  0  0
  3  4  1  0  0  0  0
  4  5  1  0  0  0  0
  4  9  1  0  0  0  0
  5  6  1  0  0  0  0
  6  7  1  0  0  0  0
  7  8  1  0  0  0  0
  7 93  1  0  0  0  0
  8  9  2  0  0  0  0
  8 17  1  0  0  0  0
  9 10  1  0  0  0  0
 10 11  1  0  0  0  0
 10 15  2  0  0  0  0
 11 12  1  0  0  0  0
 12 13  1  0  0  0  0
 12 36  1  0  0  0  0
 13 14  1  0  0  0  0
 14 15  1  0  0  0  0
 15 16  1  0  0  0  0
 16 17  2  0  0  0  0
 17 18  1  0  0  0  0
 18 19  2  0  0  0  0
 18 31  1  0  0  0  0
 19 20  1  0  0  0  0
 20 21  1  0  0  0  0
 20 29  2  0  0  0  0
 21 22  1  0  0  0  0
 21 26  1  0  0  0  0
 22 23  1  0  0  0  0
 23 24  1  0  0  0  0
 24 25  1  0  0  0  0
 24 35  1  0  0  0  0
 25 26  1  0  0  0  0
 25 34  1  0  0  0  0
 26 27  1  0  0  0  0
 27 28  1  0  0  0  0
 28 29  1  0  0  0  0
 28 33  1  0  0  0  0
 29 30  1  0  0  0  0
 30 31  2  0  0  0  0
 31 32  1  0  0  0  0
 36 37  1  0  0  0  0
 36 41  1  0  0  0  0
 37 38  1  0  0  0  0
 38 39  2  0  0  0  0
 38 53  1  0  0  0  0
 39 40  1  0  0  0  0
 39 50  1  0  0  0  0
 40 41  1  0  0  0  0
 40 49  1  0  0  0  0
 41 42  1  0  0  0  0
 42 43  1  0  0  0  0
 43 44  2  0  0  0  0
 43 48  1  0  0  0  0
 44 45  1  0  0  0  0
 45 46  2  0  0  0  0
 46 47  1  0  0  0  0
 47 48  2  0  0  0  0
 50 51  2  0  0  0  0
 51 52  1  0  0  0  0
 51 59  1  0  0  0  0
 52 53  2  0  0  0  0
 52 55  1  0  0  0  0
 53 54  1  0  0  0  0
 55 56  1  0  0  0  0
 55 57  2  0  0  0  0
 57 58  1  0  0  0  0
 58 59  2  0  0  0  0
 58 61  1  0  0  0  0
 59 60  1  0  0  0  0
 61 62  2  0  0  0  0
 61 71  1  0  0  0  0
 62 63  1  0  0  0  0
 63 64  2  0  0  0  0
 63 69  1  0  0  0  0
 64 65  1  0  0  0  0
 64 74  1  0  0  0  0
 65 66  1  0  0  0  0
 65 67  2  0  0  0  0
 67 68  1  0  0  0  0
 68 69  2  0  0  0  0
 69 70  1  0  0  0  0
 70 71  2  0  0  0  0
 70 73  1  0  0  0  0
 71 72  1  0  0  0  0
 74 75  2  0  0  0  0
 74 80  1  0  0  0  0
 75 76  1  0  0  0  0
 75 77  1  0  0  0  0
 77 78  2  0  0  0  0
 78 79  1  0  0  0  0
 78 85  1  0  0  0  0
 79 80  2  0  0  0  0
 79 82  1  0  0  0  0
 80 81  1  0  0  0  0
 82 83  2  0  0  0  0
 83 84  1  0  0  0  0
 83 92  1  0  0  0  0
 84 85  2  0  0  0  0
 84 90  1  0  0  0  0
 85 86  1  0  0  0  0
 86 87  2  0  0  0  0
 87 88  1  0  0  0  0
 87 89  1  0  0  0  0
 89 90  2  0  0  0  0
 90 91  1  0  0  0  0
M  CHG  8  69   1  70   1  74   1  75   1  83   1  85   1  87   1  90   1
M  END
$$$$