
 OpenBabel11212022063D

 54 62  0  0  1  0  0  0  0  0999 V2000
    3.4697    1.3729   -3.9116 N   0  0  0  0  0  0  0  0  0  0  0  0
    3.6765    0.9536   -2.8329 C   0  0  0  0  0  0  0  0  0  0  0  0
    3.9854    0.4226   -1.6922 C   0  0  0  0  0  0  0  0  0  0  0  0
    4.5805   -0.8271   -1.7625 O   0  0  0  0  0  0  0  0  0  0  0  0
    5.4958   -1.1099   -0.7023 C   0  0  2  0  0  0  0  0  0  0  0  0
    6.0597   -2.4287   -0.8680 O   0  0  0  0  0  0  0  0  0  0  0  0
    6.7734   -2.6591   -2.0392 C   0  0  0  0  0  0  0  0  0  0  0  0
    6.8437   -3.8857   -2.6144 C   0  0  0  0  0  0  0  0  0  0  0  0
    7.5821   -4.0824   -3.8025 O   0  0  0  0  0  0  0  0  0  0  0  0
    8.4101   -3.0721   -4.3121 C   0  0  0  0  0  0  0  0  0  0  0  0
    8.4213   -1.8509   -3.7535 C   0  0  0  0  0  0  0  0  0  0  0  0
    7.5479   -1.4939   -2.6009 C   0  0  0  0  0  0  0  0  0  0  0  0
    9.3082   -0.7433   -4.2425 C   0  0  3  0  0  0  0  0  0  0  0  0
   10.2381   -0.4729   -3.2099 O   0  0  0  0  0  0  0  0  0  0  0  0
   11.2406    0.4138   -3.4514 C   0  0  0  0  0  0  0  0  0  0  0  0
   11.8926    0.8881   -2.5360 O   0  0  0  0  0  0  0  0  0  0  0  0
   11.4844    0.7094   -4.7503 O   0  0  0  0  0  0  0  0  0  0  0  0
   10.9205    0.0121   -5.8557 C   0  0  3  0  0  0  0  0  0  0  0  0
   10.0881   -1.1428   -5.4287 C   0  0  0  0  0  0  0  0  0  0  0  0
   10.0231   -2.3792   -5.9713 C   0  0  0  0  0  0  0  0  0  0  0  0
    9.2149   -3.3601   -5.3996 O   0  3  0  0  0  0  0  0  0  0  0  0
   10.7982   -2.7808   -7.1673 C   0  0  0  0  0  0  0  0  0  0  0  0
   12.1059   -3.3498   -7.0412 O   0  0  0  0  0  0  0  0  0  0  0  0
   11.0016   -4.1693   -7.4741 O   0  0  0  0  0  0  0  0  0  0  0  0
   10.0359    0.8763   -6.5406 O   0  0  0  0  0  0  0  0  0  0  0  0
    6.1467   -5.1215   -2.0828 C   0  0  0  0  0  0  0  0  0  0  0  0
    4.9417   -4.9890   -1.3861 C   0  0  0  0  0  0  0  0  0  0  0  0
    4.2743   -6.0498   -0.9203 N   0  3  0  0  0  0  0  0  0  0  0  0
    3.1447   -5.8534   -0.2124 F   0  0  0  0  0  0  0  0  0  0  0  0
    4.6579   -7.2857   -1.1497 N   0  0  0  0  0  0  0  0  0  0  0  0
    5.7782   -7.5124   -1.8332 C   0  0  0  0  0  0  0  0  0  0  0  0
    6.6001   -6.4570   -2.2893 C   0  0  0  0  0  0  0  0  0  0  0  0
    7.8078   -6.8224   -2.9298 C   0  0  0  0  0  0  0  0  0  0  0  0
    8.1053   -8.1561   -3.2463 C   0  0  0  0  0  0  0  0  0  0  0  0
    9.2626   -8.4536   -4.0907 C   0  0  0  0  0  0  0  0  0  0  0  0
    9.9432   -7.5435   -4.5425 O   0  0  0  0  0  0  0  0  0  0  0  0
    9.4870   -9.9081   -4.4341 C   0  0  0  0  0  0  0  0  0  0  0  0
   10.6038  -10.2996   -4.7315 O   0  0  0  0  0  0  0  0  0  0  0  0
    8.2308  -10.7546   -4.3822 C   0  0  1  0  0  0  0  0  0  0  0  0
    7.4300  -10.4852   -3.2118 O   0  0  0  0  0  0  0  0  0  0  0  0
    7.2606   -9.1757   -2.8602 C   0  0  0  0  0  0  0  0  0  0  0  0
    6.1289   -8.8364   -2.1187 C   0  0  0  0  0  0  0  0  0  0  0  0
    5.2987   -9.8165   -1.7267 F   0  0  0  0  0  0  0  0  0  0  0  0
    7.4350  -10.6783   -5.6680 C   0  0  1  0  0  0  0  0  0  0  0  0
    8.1103  -11.1045   -6.8647 O   0  0  0  0  0  0  0  0  0  0  0  0
    6.0603  -11.0868   -5.5765 O   0  0  0  0  0  0  0  0  0  0  0  0
    6.2905   -9.8007   -5.8666 C   0  0  0  0  0  0  0  0  0  0  0  0
    5.9541   -8.7639   -5.3291 O   0  0  0  0  0  0  0  0  0  0  0  0
    4.7318   -1.0318    0.5997 C   0  0  0  0  0  0  0  0  0  0  0  0
    4.4905   -1.9676    1.3435 O   0  0  0  0  0  0  0  0  0  0  0  0
    4.1947    0.3600    0.8101 C   0  0  0  0  0  0  0  0  0  0  0  0
    4.3051    0.8944    1.8969 O   0  0  0  0  0  0  0  0  0  0  0  0
    3.6743    1.1014   -0.4107 C   0  0  0  0  0  0  0  0  0  0  0  0
    3.0816    2.1601   -0.3282 O   0  0  0  0  0  0  0  0  0  0  0  0
  1  2  2  0  0  0  0
  2  3  2  0  0  0  0
  3  4  1  0  0  0  0
  3 53  1  0  0  0  0
  4  5  1  0  0  0  0
  5  6  1  6  0  0  0
  5 49  1  0  0  0  0
  6  7  1  0  0  0  0
  7  8  2  0  0  0  0
  7 12  1  0  0  0  0
  8  9  1  0  0  0  0
  8 26  1  0  0  0  0
  9 10  1  0  0  0  0
 10 11  2  0  0  0  0
 10 21  1  0  0  0  0
 11 12  1  0  0  0  0
 11 13  1  0  0  0  0
 13 14  1  0  0  0  0
 13 19  1  0  0  0  0
 14 15  1  0  0  0  0
 15 16  2  0  0  0  0
 15 17  1  0  0  0  0
 17 18  1  0  0  0  0
 18 19  1  0  0  0  0
 18 25  1  0  0  0  0
 19 20  2  0  0  0  0
 20 21  1  0  0  0  0
 20 22  1  0  0  0  0
 22 23  1  0  0  0  0
 22 24  1  0  0  0  0
 23 24  1  0  0  0  0
 26 27  2  0  0  0  0
 26 32  1  0  0  0  0
 27 28  1  0  0  0  0
 28 29  1  0  0  0  0
 28 30  2  0  0  0  0
 30 31  1  0  0  0  0
 31 32  2  0  0  0  0
 31 42  1  0  0  0  0
 32 33  1  0  0  0  0
 33 34  2  0  0  0  0
 34 35  1  0  0  0  0
 34 41  1  0  0  0  0
 35 36  2  0  0  0  0
 35 37  1  0  0  0  0
 37 38  2  0  0  0  0
 39 37  1  6  0  0  0
 39 40  1  0  0  0  0
 39 44  1  0  0  0  0
 40 41  1  0  0  0  0
 41 42  2  0  0  0  0
 42 43  1  0  0  0  0
 44 45  1  6  0  0  0
 44 46  1  0  0  0  0
 44 47  1  0  0  0  0
 46 47  1  0  0  0  0
 47 48  2  0  0  0  0
 49 50  2  0  0  0  0
 49 51  1  0  0  0  0
 51 52  2  0  0  0  0
 51 53  1  0  0  0  0
 53 54  2  0  0  0  0
M  CHG  2  21   1  28   1
M  END
$$$$