
 OpenBabel11212023563D

 54 62  0  0  1  0  0  0  0  0999 V2000
    7.3617   -0.4355    5.2408 O   0  0  0  0  0  0  0  0  0  0  0  0
    7.0671    0.6707    4.4815 C   0  0  0  0  0  0  0  0  0  0  0  0
    5.8597    0.8805    3.9439 C   0  0  0  0  0  0  0  0  0  0  0  0
    4.8599   -0.0645    4.0949 O   0  0  0  0  0  0  0  0  0  0  0  0
    3.5423    0.4547    4.1716 C   0  0  2  0  0  0  0  0  0  0  0  0
    2.5889   -0.6242    4.2744 O   0  0  0  0  0  0  0  0  0  0  0  0
    2.6891   -1.4667    5.3740 C   0  0  0  0  0  0  0  0  0  0  0  0
    2.3023   -2.7656    5.3141 C   0  0  0  0  0  0  0  0  0  0  0  0
    2.4274   -3.6147    6.4296 O   0  0  0  0  0  0  0  0  0  0  0  0
    2.9580   -3.1309    7.6362 C   0  0  0  0  0  0  0  0  0  0  0  0
    3.2653   -1.8279    7.7849 C   0  0  0  0  0  0  0  0  0  0  0  0
    3.1478   -0.8493    6.6668 C   0  0  0  0  0  0  0  0  0  0  0  0
    3.7916   -1.2573    9.0746 C   0  0  3  0  0  0  0  0  0  0  0  0
    2.8878   -0.2616    9.5167 O   0  0  0  0  0  0  0  0  0  0  0  0
    3.1542    0.2728   10.7289 C   0  0  0  0  0  0  0  0  0  0  0  0
    2.6402    1.3983   11.0447 N   0  0  0  0  0  0  0  0  0  0  0  0
    3.9583   -0.3948   11.5828 O   0  0  0  0  0  0  0  0  0  0  0  0
    4.2635   -1.6927   11.3984 C   0  0  0  0  0  0  0  0  0  0  0  0
    4.8916   -2.3606   12.2059 O   0  0  0  0  0  0  0  0  0  0  0  0
    3.8598   -2.2814   10.1218 C   0  0  0  0  0  0  0  0  0  0  0  0
    3.5874   -3.5893    9.9237 C   0  0  0  0  0  0  0  0  0  0  0  0
    3.1507   -4.0256    8.6739 O   0  3  0  0  0  0  0  0  0  0  0  0
    3.6506   -4.6296   10.9796 C   0  0  0  0  0  0  0  0  0  0  0  0
    2.4886   -4.9555   11.7520 O   0  0  0  0  0  0  0  0  0  0  0  0
    2.9912   -5.8938   10.7820 O   0  0  0  0  0  0  0  0  0  0  0  0
    1.6689   -3.3749    4.0848 C   0  0  0  0  0  0  0  0  0  0  0  0
    0.8493   -2.5527    3.2989 C   0  0  0  0  0  0  0  0  0  0  0  0
    0.2801   -2.9889    2.1739 N   0  3  0  0  0  0  0  0  0  0  0  0
   -0.4699   -2.1383    1.4468 F   0  0  0  0  0  0  0  0  0  0  0  0
    0.4136   -4.2236    1.7505 N   0  0  0  0  0  0  0  0  0  0  0  0
    1.1346   -5.0906    2.4583 C   0  0  0  0  0  0  0  0  0  0  0  0
    1.7940   -4.7287    3.6570 C   0  0  0  0  0  0  0  0  0  0  0  0
    2.5172   -5.7549    4.3193 C   0  0  0  0  0  0  0  0  0  0  0  0
    2.5650   -7.0720    3.8206 C   0  0  0  0  0  0  0  0  0  0  0  0
    3.2638   -8.1179    4.5685 C   0  0  0  0  0  0  0  0  0  0  0  0
    3.7083   -7.8716    5.6807 O   0  0  0  0  0  0  0  0  0  0  0  0
    3.3462   -9.4892    3.9295 C   0  0  0  0  0  0  0  0  0  0  0  0
    3.6437  -10.4589    4.6100 O   0  0  0  0  0  0  0  0  0  0  0  0
    3.0383   -9.5227    2.4462 C   0  0  1  0  0  0  0  0  0  0  0  0
    1.9750   -8.6335    2.0567 O   0  0  0  0  0  0  0  0  0  0  0  0
    1.9357   -7.4000    2.6383 C   0  0  0  0  0  0  0  0  0  0  0  0
    1.2230   -6.3997    1.9819 C   0  0  0  0  0  0  0  0  0  0  0  0
    0.5976   -6.7051    0.8333 F   0  0  0  0  0  0  0  0  0  0  0  0
    4.2818   -9.3624    1.6032 C   0  0  1  0  0  0  0  0  0  0  0  0
    5.2976  -10.3674    1.7670 O   0  0  0  0  0  0  0  0  0  0  0  0
    4.0765   -8.9213    0.2508 O   0  0  0  0  0  0  0  0  0  0  0  0
    4.7304   -8.0877    1.0696 C   0  0  0  0  0  0  0  0  0  0  0  0
    4.4938   -6.9437    1.4178 O   0  0  0  0  0  0  0  0  0  0  0  0
    3.2151    1.2688    2.9400 C   0  0  0  0  0  0  0  0  0  0  0  0
    2.2636    1.0822    2.1970 O   0  0  0  0  0  0  0  0  0  0  0  0
    4.2086    2.3836    2.7543 C   0  0  0  0  0  0  0  0  0  0  0  0
    3.8155    3.4880    2.4234 O   0  0  0  0  0  0  0  0  0  0  0  0
    5.6512    2.1335    3.1535 C   0  0  0  0  0  0  0  0  0  0  0  0
    6.5418    2.9150    2.8728 O   0  0  0  0  0  0  0  0  0  0  0  0
  1  2  1  0  0  0  0
  2  3  2  0  0  0  0
  3  4  1  0  0  0  0
  3 53  1  0  0  0  0
  4  5  1  0  0  0  0
  5  6  1  6  0  0  0
  5 49  1  0  0  0  0
  6  7  1  0  0  0  0
  7  8  2  0  0  0  0
  7 12  1  0  0  0  0
  8  9  1  0  0  0  0
  8 26  1  0  0  0  0
  9 10  1  0  0  0  0
 10 11  2  0  0  0  0
 10 22  1  0  0  0  0
 11 12  1  0  0  0  0
 11 13  1  0  0  0  0
 13 14  1  0  0  0  0
 13 20  1  0  0  0  0
 14 15  1  0  0  0  0
 15 16  2  0  0  0  0
 15 17  1  0  0  0  0
 17 18  1  0  0  0  0
 18 19  2  0  0  0  0
 18 20  1  0  0  0  0
 20 21  2  0  0  0  0
 21 22  1  0  0  0  0
 21 23  1  0  0  0  0
 23 24  1  0  0  0  0
 23 25  1  0  0  0  0
 24 25  1  0  0  0  0
 26 27  2  0  0  0  0
 26 32  1  0  0  0  0
 27 28  1  0  0  0  0
 28 29  1  0  0  0  0
 28 30  2  0  0  0  0
 30 31  1  0  0  0  0
 31 32  2  0  0  0  0
 31 42  1  0  0  0  0
 32 33  1  0  0  0  0
 33 34  2  0  0  0  0
 34 35  1  0  0  0  0
 34 41  1  0  0  0  0
 35 36  2  0  0  0  0
 35 37  1  0  0  0  0
 37 38  2  0  0  0  0
 39 37  1  1  0  0  0
 39 40  1  0  0  0  0
 39 44  1  0  0  0  0
 40 41  1  0  0  0  0
 41 42  2  0  0  0  0
 42 43  1  0  0  0  0
 44 45  1  1  0  0  0
 44 46  1  0  0  0  0
 44 47  1  0  0  0  0
 46 47  1  0  0  0  0
 47 48  2  0  0  0  0
 49 50  2  0  0  0  0
 49 51  1  0  0  0  0
 51 52  2  0  0  0  0
 51 53  1  0  0  0  0
 53 54  2  0  0  0  0
M  CHG  2  22   1  28   1
M  END
$$$$