
 OpenBabel11242023023D

 53 61  0  0  1  0  0  0  0  0999 V2000
    3.9534    4.4137   -2.8213 O   0  0  0  0  0  0  0  0  0  0  0  0
    4.3698    3.5257   -1.8613 C   0  0  0  0  0  0  0  0  0  0  0  0
    4.1663    2.2044   -1.9447 C   0  0  0  0  0  0  0  0  0  0  0  0
    3.4286    1.6446   -2.9698 O   0  0  0  0  0  0  0  0  0  0  0  0
    3.9585    0.4571   -3.5382 C   0  0  2  0  0  0  0  0  0  0  0  0
    3.0495   -0.1341   -4.5190 O   0  0  0  0  0  0  0  0  0  0  0  0
    2.6973    0.5752   -5.6618 C   0  0  0  0  0  0  0  0  0  0  0  0
    2.3633   -0.0594   -6.8098 C   0  0  0  0  0  0  0  0  0  0  0  0
    2.0750    0.6113   -8.0032 O   0  0  0  0  0  0  0  0  0  0  0  0
    2.2338    1.9994   -8.0646 C   0  0  0  0  0  0  0  0  0  0  0  0
    2.4844    2.7120   -6.9521 C   0  0  0  0  0  0  0  0  0  0  0  0
    2.6311    2.0778   -5.5996 C   0  0  0  0  0  0  0  0  0  0  0  0
    2.6989    4.1967   -6.9847 C   0  0  3  0  0  0  0  0  0  0  0  0
    4.0362    4.4266   -6.5770 O   0  0  0  0  0  0  0  0  0  0  0  0
    4.4524    5.7164   -6.5340 C   0  0  0  0  0  0  0  0  0  0  0  0
    5.4311    6.0450   -5.8698 O   0  0  0  0  0  0  0  0  0  0  0  0
    3.7492    6.5951   -7.2824 O   0  0  0  0  0  0  0  0  0  0  0  0
    2.8305    6.2071   -8.3007 C   0  0  3  0  0  0  0  0  0  0  0  0
    2.6110    4.7396   -8.3560 C   0  0  0  0  0  0  0  0  0  0  0  0
    2.3778    3.9722   -9.4429 C   0  0  0  0  0  0  0  0  0  0  0  0
    2.1589    2.6081   -9.3005 O   0  3  0  0  0  0  0  0  0  0  0  0
    2.3625    4.4907  -10.8308 C   0  0  0  0  0  0  0  0  0  0  0  0
    3.5639    4.5172  -11.6137 O   0  0  0  0  0  0  0  0  0  0  0  0
    2.5123    3.5901  -11.9432 O   0  0  0  0  0  0  0  0  0  0  0  0
    1.5535    6.7297   -7.9889 O   0  0  0  0  0  0  0  0  0  0  0  0
    2.3615   -1.5319   -6.9284 C   0  0  0  0  0  0  0  0  0  0  0  0
    3.5467   -2.1358   -7.3371 C   0  0  0  0  0  0  0  0  0  0  0  0
    3.6459   -3.4654   -7.4098 N   0  3  0  0  0  0  0  0  0  0  0  0
    4.7944   -4.0135   -7.8506 F   0  0  0  0  0  0  0  0  0  0  0  0
    2.6567   -4.2660   -7.0715 N   0  0  0  0  0  0  0  0  0  0  0  0
    1.4863   -3.7514   -6.6782 C   0  0  0  0  0  0  0  0  0  0  0  0
    1.2585   -2.3633   -6.6233 C   0  0  0  0  0  0  0  0  0  0  0  0
   -0.0469   -1.9055   -6.2893 C   0  0  0  0  0  0  0  0  0  0  0  0
   -1.0851   -2.8092   -5.9987 C   0  0  0  0  0  0  0  0  0  0  0  0
   -2.4777   -2.3745   -5.7916 C   0  0  0  0  0  0  0  0  0  0  0  0
   -2.9504   -1.1933   -6.0386 N   0  0  0  0  0  0  0  0  0  0  0  0
   -3.4573   -3.4218   -5.3292 C   0  0  0  0  0  0  0  0  0  0  0  0
   -4.7297   -3.1752   -5.3764 N   0  0  0  0  0  0  0  0  0  0  0  0
   -2.8592   -4.7165   -4.8419 C   0  0  1  0  0  0  0  0  0  0  0  0
   -1.7348   -5.1344   -5.6366 O   0  0  0  0  0  0  0  0  0  0  0  0
   -0.8191   -4.1721   -5.9614 C   0  0  0  0  0  0  0  0  0  0  0  0
    0.4545   -4.6168   -6.3208 C   0  0  0  0  0  0  0  0  0  0  0  0
    0.7006   -5.9374   -6.3352 F   0  0  0  0  0  0  0  0  0  0  0  0
   -2.4743   -4.6474   -3.3815 C   0  0  1  0  0  0  0  0  0  0  0  0
   -1.5035   -3.6528   -3.0049 O   0  0  0  0  0  0  0  0  0  0  0  0
   -3.5512   -4.8024   -2.4570 O   0  0  0  0  0  0  0  0  0  0  0  0
   -2.5796   -5.8583   -2.4859 C   0  0  0  0  0  0  0  0  0  0  0  0
    4.2432   -0.6166   -2.4938 C   0  0  0  0  0  0  0  0  0  0  0  0
    4.0366   -1.8130   -2.6509 O   0  0  0  0  0  0  0  0  0  0  0  0
    4.9168   -0.0830   -1.2519 C   0  0  0  0  0  0  0  0  0  0  0  0
    5.7053   -0.7902   -0.6459 O   0  0  0  0  0  0  0  0  0  0  0  0
    4.7085    1.3587   -0.8494 C   0  0  0  0  0  0  0  0  0  0  0  0
    4.9912    1.7728    0.2601 O   0  0  0  0  0  0  0  0  0  0  0  0
  1  2  1  0  0  0  0
  2  3  2  0  0  0  0
  3  4  1  0  0  0  0
  3 52  1  0  0  0  0
  4  5  1  0  0  0  0
  5  6  1  6  0  0  0
  5 48  1  0  0  0  0
  6  7  1  0  0  0  0
  7  8  2  0  0  0  0
  7 12  1  0  0  0  0
  8  9  1  0  0  0  0
  8 26  1  0  0  0  0
  9 10  1  0  0  0  0
 10 11  2  0  0  0  0
 10 21  1  0  0  0  0
 11 12  1  0  0  0  0
 11 13  1  0  0  0  0
 13 14  1  0  0  0  0
 13 19  1  0  0  0  0
 14 15  1  0  0  0  0
 15 16  2  0  0  0  0
 15 17  1  0  0  0  0
 17 18  1  0  0  0  0
 18 19  1  0  0  0  0
 18 25  1  0  0  0  0
 19 20  2  0  0  0  0
 20 21  1  0  0  0  0
 20 22  1  0  0  0  0
 22 23  1  0  0  0  0
 22 24  1  0  0  0  0
 23 24  1  0  0  0  0
 26 27  2  0  0  0  0
 26 32  1  0  0  0  0
 27 28  1  0  0  0  0
 28 29  1  0  0  0  0
 28 30  2  0  0  0  0
 30 31  1  0  0  0  0
 31 32  2  0  0  0  0
 31 42  1  0  0  0  0
 32 33  1  0  0  0  0
 33 34  2  0  0  0  0
 34 35  1  0  0  0  0
 34 41  1  0  0  0  0
 35 36  2  0  0  0  0
 35 37  1  0  0  0  0
 37 38  2  0  0  0  0
 39 37  1  6  0  0  0
 39 40  1  0  0  0  0
 39 44  1  0  0  0  0
 40 41  1  0  0  0  0
 41 42  2  0  0  0  0
 42 43  1  0  0  0  0
 44 45  1  1  0  0  0
 44 46  1  0  0  0  0
 44 47  1  0  0  0  0
 46 47  1  0  0  0  0
 48 49  2  0  0  0  0
 48 50  1  0  0  0  0
 50 51  2  0  0  0  0
 50 52  1  0  0  0  0
 52 53  2  0  0  0  0
M  CHG  2  21   1  28   1
M  END
$$$$