
 OpenBabel11272002333D

 54 63  0  0  1  0  0  0  0  0999 V2000
   18.0635    3.9896    0.1020 O   0  0  0  0  0  0  0  0  0  0  0  0
   17.4710    3.8253    1.3358 C   0  0  0  0  0  0  0  0  0  0  0  0
   16.6166    2.8323    1.6198 C   0  0  0  0  0  0  0  0  0  0  0  0
   16.2585    1.9554    0.6424 O   0  0  0  0  0  0  0  0  0  0  0  0
   15.4653    0.7953    0.8385 C   0  0  2  0  0  0  0  0  0  0  0  0
   14.9334    0.2930   -0.4080 O   0  0  0  0  0  0  0  0  0  0  0  0
   15.4247    0.7327   -1.6349 C   0  0  0  0  0  0  0  0  0  0  0  0
   14.6581    0.7917   -2.7562 C   0  0  0  0  0  0  0  0  0  0  0  0
   15.1883    1.3166   -3.9421 O   0  0  0  0  0  0  0  0  0  0  0  0
   16.5006    1.7225   -4.0687 C   0  0  0  0  0  0  0  0  0  0  0  0
   17.3511    1.5550   -3.0528 C   0  0  0  0  0  0  0  0  0  0  0  0
   16.9059    1.0121   -1.7425 C   0  0  0  0  0  0  0  0  0  0  0  0
   18.7726    2.0039   -3.1069 C   0  0  3  0  0  0  0  0  0  0  0  0
   19.5898    0.8651   -2.9331 O   0  0  0  0  0  0  0  0  0  0  0  0
   20.9109    1.0533   -3.1152 C   0  0  0  0  0  0  0  0  0  0  0  0
   21.7272    0.1523   -2.7225 N   0  0  0  0  0  0  0  0  0  0  0  0
   21.3434    2.1844   -3.7131 O   0  0  0  0  0  0  0  0  0  0  0  0
   20.5111    2.9625   -4.4318 C   0  0  0  0  0  0  0  0  0  0  0  0
   20.8748    3.9557   -5.0432 O   0  0  0  0  0  0  0  0  0  0  0  0
   19.1005    2.5838   -4.4154 C   0  0  0  0  0  0  0  0  0  0  0  0
   18.2149    2.7423   -5.4242 C   0  0  0  0  0  0  0  0  0  0  0  0
   16.9010    2.2985   -5.2580 O   0  3  0  0  0  0  0  0  0  0  0  0
   18.5167    3.3480   -6.7478 C   0  0  0  0  0  0  0  0  0  0  0  0
   17.7872    2.9301   -7.9145 O   0  0  0  0  0  0  0  0  0  0  0  0
   17.5756    4.2431   -7.3638 O   0  0  0  0  0  0  0  0  0  0  0  0
   13.2368    0.2635   -2.8961 C   0  0  0  0  0  0  0  0  0  0  0  0
   12.7509   -0.3152   -1.7790 N   0  0  0  0  0  0  0  0  0  0  0  0
   11.5561   -0.9269   -1.8322 C   0  0  0  0  0  0  0  0  0  0  0  0
   11.1192   -1.5287   -0.7179 F   0  0  0  0  0  0  0  0  0  0  0  0
   10.7744   -1.0012   -2.9655 C   0  0  0  0  0  0  0  0  0  0  0  0
   11.2214   -0.4134   -4.1572 C   0  0  0  0  0  0  0  0  0  0  0  0
   12.4895    0.2344   -4.1250 C   0  0  0  0  0  0  0  0  0  0  0  0
   12.9350    0.7659   -5.3498 C   0  0  0  0  0  0  0  0  0  0  0  0
   12.2544    0.6146   -6.5488 C   0  0  0  0  0  0  0  0  0  0  0  0
   11.0136    0.0188   -6.5741 C   0  0  0  0  0  0  0  0  0  0  0  0
   10.4584   -0.4680   -5.3759 C   0  0  0  0  0  0  0  0  0  0  0  0
    9.2493   -1.1919   -5.4507 N   0  0  0  0  0  0  0  0  0  0  0  0
   10.2992   -0.0974   -7.7466 O   0  0  0  0  0  0  0  0  0  0  0  0
   10.6619    0.8945   -8.7437 C   0  0  1  0  0  0  0  0  0  0  0  0
   12.0971    1.0118   -9.0487 C   0  0  0  0  0  0  0  0  0  0  0  0
   12.5884    1.1586  -10.1531 O   0  0  0  0  0  0  0  0  0  0  0  0
   12.9096    1.0887   -7.7753 C   0  0  0  0  0  0  0  0  0  0  0  0
   14.0456    1.5514   -7.7367 O   0  0  0  0  0  0  0  0  0  0  0  0
    9.7567    1.0976   -9.7973 O   0  0  0  0  0  0  0  0  0  0  0  0
    9.8873    2.1775   -8.8207 C   0  0  1  0  0  0  0  0  0  0  0  0
    8.9708    2.1895   -7.6709 O   0  0  0  0  0  0  0  0  0  0  0  0
    8.6149    2.8249   -8.7537 C   0  0  0  0  0  0  0  0  0  0  0  0
    8.2784    3.9966   -8.9214 O   0  0  0  0  0  0  0  0  0  0  0  0
   14.3741    1.1033    1.8524 C   0  0  0  0  0  0  0  0  0  0  0  0
   13.1714    0.9530    1.7169 O   0  0  0  0  0  0  0  0  0  0  0  0
   14.9357    1.7238    3.1067 C   0  0  0  0  0  0  0  0  0  0  0  0
   14.5596    1.3498    4.2043 O   0  0  0  0  0  0  0  0  0  0  0  0
   16.0160    2.7752    2.9716 C   0  0  0  0  0  0  0  0  0  0  0  0
   16.3432    3.5082    3.8880 O   0  0  0  0  0  0  0  0  0  0  0  0
  1  2  1  0  0  0  0
  2  3  2  0  0  0  0
  3  4  1  0  0  0  0
  3 53  1  0  0  0  0
  4  5  1  0  0  0  0
  5  6  1  6  0  0  0
  5 49  1  0  0  0  0
  6  7  1  0  0  0  0
  7  8  2  0  0  0  0
  7 12  1  0  0  0  0
  8  9  1  0  0  0  0
  8 26  1  0  0  0  0
  9 10  1  0  0  0  0
 10 11  2  0  0  0  0
 10 22  1  0  0  0  0
 11 12  1  0  0  0  0
 11 13  1  0  0  0  0
 13 14  1  0  0  0  0
 13 20  1  0  0  0  0
 14 15  1  0  0  0  0
 15 16  2  0  0  0  0
 15 17  1  0  0  0  0
 17 18  1  0  0  0  0
 18 19  2  0  0  0  0
 18 20  1  0  0  0  0
 20 21  2  0  0  0  0
 21 22  1  0  0  0  0
 21 23  1  0  0  0  0
 23 24  1  0  0  0  0
 23 25  1  0  0  0  0
 24 25  1  0  0  0  0
 26 27  2  0  0  0  0
 26 32  1  0  0  0  0
 27 28  1  0  0  0  0
 28 29  1  0  0  0  0
 28 30  2  0  0  0  0
 30 31  1  0  0  0  0
 31 32  2  0  0  0  0
 31 36  1  0  0  0  0
 32 33  1  0  0  0  0
 33 34  2  0  0  0  0
 34 35  1  0  0  0  0
 34 42  1  0  0  0  0
 35 36  2  0  0  0  0
 35 38  1  0  0  0  0
 36 37  1  0  0  0  0
 39 38  1  1  0  0  0
 39 40  1  0  0  0  0
 39 44  1  0  0  0  0
 39 45  1  0  0  0  0
 40 41  2  0  0  0  0
 40 42  1  0  0  0  0
 42 43  2  0  0  0  0
 45 44  1  6  0  0  0
 45 46  1  0  0  0  0
 45 47  1  0  0  0  0
 46 47  1  0  0  0  0
 47 48  2  0  0  0  0
 49 50  2  0  0  0  0
 49 51  1  0  0  0  0
 51 52  2  0  0  0  0
 51 53  1  0  0  0  0
 53 54  2  0  0  0  0
M  CHG  1  22   1
M  END
$$$$