
 OpenBabel11172004573D

 52 60  0  0  1  0  0  0  0  0999 V2000
    7.9553   -3.7000    4.6757 O   0  0  0  0  0  0  0  0  0  0  0  0
    7.6709   -2.3636    4.5854 C   0  0  0  0  0  0  0  0  0  0  0  0
    6.5122   -1.9026    4.1011 C   0  0  0  0  0  0  0  0  0  0  0  0
    5.5330   -2.7640    3.6342 O   0  0  0  0  0  0  0  0  0  0  0  0
    4.2061   -2.2974    3.8871 C   0  0  2  0  0  0  0  0  0  0  0  0
    3.2242   -3.2669    3.5067 O   0  0  0  0  0  0  0  0  0  0  0  0
    3.2377   -4.4962    4.1533 C   0  0  0  0  0  0  0  0  0  0  0  0
    2.8686   -5.6195    3.4986 C   0  0  0  0  0  0  0  0  0  0  0  0
    2.7781   -6.8643    4.1092 O   0  0  0  0  0  0  0  0  0  0  0  0
    3.1400   -6.9918    5.4418 C   0  0  0  0  0  0  0  0  0  0  0  0
    3.5471   -5.9441    6.1790 C   0  0  0  0  0  0  0  0  0  0  0  0
    3.5959   -4.5543    5.6210 C   0  0  0  0  0  0  0  0  0  0  0  0
    4.0323   -6.1522    7.5932 C   0  0  3  0  0  0  0  0  0  0  0  0
    3.2208   -5.3598    8.4539 O   0  0  0  0  0  0  0  0  0  0  0  0
    3.3478   -5.4848    9.7984 C   0  0  0  0  0  0  0  0  0  0  0  0
    2.8560   -4.6621   10.5597 O   0  0  0  0  0  0  0  0  0  0  0  0
    4.0203   -6.5644   10.2646 O   0  0  0  0  0  0  0  0  0  0  0  0
    4.4658   -7.6465    9.4509 C   0  0  3  0  0  0  0  0  0  0  0  0
    3.9591   -7.5622    8.0660 C   0  0  0  0  0  0  0  0  0  0  0  0
    3.4949   -8.5619    7.2812 C   0  0  0  0  0  0  0  0  0  0  0  0
    3.0841   -8.2492    5.9922 N   0  0  0  0  0  0  0  0  0  0  0  0
    3.3923   -9.9880    7.6769 C   0  0  0  0  0  0  0  0  0  0  0  0
    4.0820  -11.0247    6.9564 O   0  0  0  0  0  0  0  0  0  0  0  0
    4.4733  -10.6989    8.3032 O   0  0  0  0  0  0  0  0  0  0  0  0
    5.8824   -7.6037    9.3899 O   0  0  0  0  0  0  0  0  0  0  0  0
    2.5476   -5.6303    2.0584 C   0  0  0  0  0  0  0  0  0  0  0  0
    1.2408   -5.4132    1.6524 C   0  0  0  0  0  0  0  0  0  0  0  0
    0.8841   -5.3251    0.3571 N   0  0  0  0  0  0  0  0  0  0  0  0
    1.8447   -5.4047   -0.6084 N   0  0  0  0  0  0  0  0  0  0  0  0
    3.1271   -5.6202   -0.2882 C   0  0  0  0  0  0  0  0  0  0  0  0
    3.5302   -5.7887    1.0525 C   0  0  0  0  0  0  0  0  0  0  0  0
    4.8838   -6.1083    1.3102 C   0  0  0  0  0  0  0  0  0  0  0  0
    5.8121   -6.1889    0.2671 C   0  0  0  0  0  0  0  0  0  0  0  0
    5.4259   -5.9178   -1.0365 C   0  0  0  0  0  0  0  0  0  0  0  0
    4.0799   -5.6666   -1.3030 C   0  0  0  0  0  0  0  0  0  0  0  0
    6.2724   -5.9010   -2.1092 O   0  0  0  0  0  0  0  0  0  0  0  0
    7.6690   -5.7823   -1.8160 C   0  0  2  0  0  0  0  0  0  0  0  0
    8.1606   -6.5552   -0.6143 C   0  0  0  0  0  0  0  0  0  0  0  0
    9.2728   -7.0580   -0.5281 O   0  0  0  0  0  0  0  0  0  0  0  0
    7.1925   -6.6006    0.5425 C   0  0  0  0  0  0  0  0  0  0  0  0
    7.5422   -6.9959    1.6433 O   0  0  0  0  0  0  0  0  0  0  0  0
    8.0694   -4.3437   -1.7092 C   0  0  1  0  0  0  0  0  0  0  0  0
    7.4255   -3.5648   -0.6699 O   0  0  0  0  0  0  0  0  0  0  0  0
    9.4718   -4.1119   -1.8697 O   0  0  0  0  0  0  0  0  0  0  0  0
    8.6629   -3.5735   -2.8022 C   0  0  0  0  0  0  0  0  0  0  0  0
    8.5086   -2.4142   -3.1104 O   0  0  0  0  0  0  0  0  0  0  0  0
    3.9704   -1.0191    3.0912 C   0  0  0  0  0  0  0  0  0  0  0  0
    2.9995   -0.7598    2.3966 O   0  0  0  0  0  0  0  0  0  0  0  0
    5.0817   -0.0131    3.2815 C   0  0  0  0  0  0  0  0  0  0  0  0
    4.9993    1.1125    2.8173 O   0  0  0  0  0  0  0  0  0  0  0  0
    6.3067   -0.4288    4.0668 C   0  0  0  0  0  0  0  0  0  0  0  0
    7.0068    0.3798    4.6515 O   0  0  0  0  0  0  0  0  0  0  0  0
  1  2  1  0  0  0  0
  2  3  2  0  0  0  0
  3  4  1  0  0  0  0
  3 51  1  0  0  0  0
  4  5  1  0  0  0  0
  5  6  1  6  0  0  0
  5 47  1  0  0  0  0
  6  7  1  0  0  0  0
  7  8  2  0  0  0  0
  7 12  1  0  0  0  0
  8  9  1  0  0  0  0
  8 26  1  0  0  0  0
  9 10  1  0  0  0  0
 10 11  2  0  0  0  0
 10 21  1  0  0  0  0
 11 12  1  0  0  0  0
 11 13  1  0  0  0  0
 13 14  1  0  0  0  0
 13 19  1  0  0  0  0
 14 15  1  0  0  0  0
 15 16  2  0  0  0  0
 15 17  1  0  0  0  0
 17 18  1  0  0  0  0
 18 19  1  0  0  0  0
 18 25  1  0  0  0  0
 19 20  2  0  0  0  0
 20 21  1  0  0  0  0
 20 22  1  0  0  0  0
 22 23  1  0  0  0  0
 22 24  1  0  0  0  0
 23 24  1  0  0  0  0
 26 27  2  0  0  0  0
 26 31  1  0  0  0  0
 27 28  1  0  0  0  0
 28 29  2  0  0  0  0
 29 30  1  0  0  0  0
 30 31  2  0  0  0  0
 30 35  1  0  0  0  0
 31 32  1  0  0  0  0
 32 33  2  0  0  0  0
 33 34  1  0  0  0  0
 33 40  1  0  0  0  0
 34 35  2  0  0  0  0
 34 36  1  0  0  0  0
 37 36  1  1  0  0  0
 37 38  1  0  0  0  0
 37 42  1  0  0  0  0
 38 39  2  0  0  0  0
 38 40  1  0  0  0  0
 40 41  2  0  0  0  0
 42 43  1  1  0  0  0
 42 44  1  0  0  0  0
 42 45  1  0  0  0  0
 44 45  1  0  0  0  0
 45 46  2  0  0  0  0
 47 48  2  0  0  0  0
 47 49  1  0  0  0  0
 49 50  2  0  0  0  0
 49 51  1  0  0  0  0
 51 52  2  0  0  0  0
M  END
$$$$