
 OpenBabel09222017463D

 51 58  0  0  1  0  0  0  0  0999 V2000
   -0.1361   -1.5940    5.4399 O   0  0  0  0  0  0  0  0  0  0  0  0
    0.2695   -1.9307    4.1731 C   0  0  0  0  0  0  0  0  0  0  0  0
    0.7048   -1.0236    3.2894 C   0  0  0  0  0  0  0  0  0  0  0  0
    0.7060    0.3220    3.6052 O   0  0  0  0  0  0  0  0  0  0  0  0
    1.8109    1.0659    3.0838 C   0  0  2  0  0  0  0  0  0  0  0  0
    1.8501    2.3914    3.6176 O   0  0  0  0  0  0  0  0  0  0  0  0
    2.0794    2.5206    4.9888 C   0  0  0  0  0  0  0  0  0  0  0  0
    2.0903    3.7283    5.5883 C   0  0  0  0  0  0  0  0  0  0  0  0
    2.3264    3.9251    6.9467 O   0  0  0  0  0  0  0  0  0  0  0  0
    2.5901    2.8362    7.7523 C   0  0  0  0  0  0  0  0  0  0  0  0
    2.6137    1.5515    7.2541 C   0  0  0  0  0  0  0  0  0  0  0  0
    2.3292    1.2955    5.8162 C   0  0  0  0  0  0  0  0  0  0  0  0
    2.8870    0.5122    8.1430 C   0  0  0  0  0  0  0  0  0  0  0  0
    2.9404   -0.8115    7.6860 N   0  0  0  0  0  0  0  0  0  0  0  0
    3.1152   -1.8978    8.4773 C   0  0  0  0  0  0  0  0  0  0  0  0
    3.1056   -3.0314    8.0090 O   0  0  0  0  0  0  0  0  0  0  0  0
    3.2659   -1.6725    9.8014 N   0  0  0  0  0  0  0  0  0  0  0  0
    3.4818   -0.3702   10.3925 C   0  0  0  0  0  0  0  0  0  0  0  0
    3.1215    0.7714    9.4903 C   0  0  0  0  0  0  0  0  0  0  0  0
    3.1137    2.1098    9.9140 C   0  0  0  0  0  0  0  0  0  0  0  0
    2.8410    3.1243    9.0457 N   0  0  0  0  0  0  0  0  0  0  0  0
    3.4174    2.3938   11.2846 N   0  0  0  0  0  0  0  0  0  0  0  0
    3.9579    4.0202   11.5546 Cl  0  0  0  0  0  0  0  0  0  0  0  0
    2.5009    1.9437   12.2381 O   0  0  0  0  0  0  0  0  0  0  0  0
    1.8605    4.9843    4.8503 C   0  0  0  0  0  0  0  0  0  0  0  0
    0.5574    5.3620    4.7811 N   0  0  0  0  0  0  0  0  0  0  0  0
    0.2844    6.5302    4.1697 C   0  0  0  0  0  0  0  0  0  0  0  0
    1.2509    7.3696    3.6450 C   0  0  0  0  0  0  0  0  0  0  0  0
    2.5932    6.9874    3.7220 C   0  0  0  0  0  0  0  0  0  0  0  0
    2.9264    5.7478    4.3143 C   0  0  0  0  0  0  0  0  0  0  0  0
    4.2877    5.3624    4.3265 C   0  0  0  0  0  0  0  0  0  0  0  0
    5.2773    6.2000    3.7975 C   0  0  0  0  0  0  0  0  0  0  0  0
    4.9501    7.4518    3.2892 C   0  0  0  0  0  0  0  0  0  0  0  0
    3.6084    7.8284    3.2268 C   0  0  0  0  0  0  0  0  0  0  0  0
    5.8526    8.3706    2.8264 O   0  0  0  0  0  0  0  0  0  0  0  0
    7.2302    8.1379    3.1468 C   0  0  2  0  0  0  0  0  0  0  0  0
    7.6477    6.6894    3.0834 C   0  0  0  0  0  0  0  0  0  0  0  0
    8.6812    6.2858    2.5695 O   0  0  0  0  0  0  0  0  0  0  0  0
    6.6720    5.7437    3.7413 C   0  0  0  0  0  0  0  0  0  0  0  0
    7.0262    4.6536    4.1604 O   0  0  0  0  0  0  0  0  0  0  0  0
    7.5843    8.7352    4.4729 C   0  0  1  0  0  0  0  0  0  0  0  0
    6.8721    8.2253    5.6259 O   0  0  0  0  0  0  0  0  0  0  0  0
    8.9877    8.9431    4.6615 O   0  0  0  0  0  0  0  0  0  0  0  0
    8.2121   10.0468    4.6463 C   0  0  0  0  0  0  0  0  0  0  0  0
    8.0490   10.8835    5.4982 O   0  0  0  0  0  0  0  0  0  0  0  0
    1.6873    1.0328    1.5733 C   0  0  0  0  0  0  0  0  0  0  0  0
    1.5976    1.9804    0.8108 O   0  0  0  0  0  0  0  0  0  0  0  0
    1.7164   -0.3880    1.0673 C   0  0  0  0  0  0  0  0  0  0  0  0
    2.2790   -0.6519    0.0167 O   0  0  0  0  0  0  0  0  0  0  0  0
    1.1499   -1.4904    1.9457 C   0  0  0  0  0  0  0  0  0  0  0  0
    1.1093   -2.6529    1.5795 O   0  0  0  0  0  0  0  0  0  0  0  0
  1  2  1  0  0  0  0
  2  3  2  0  0  0  0
  3  4  1  0  0  0  0
  3 50  1  0  0  0  0
  4  5  1  0  0  0  0
  5  6  1  1  0  0  0
  5 46  1  0  0  0  0
  6  7  1  0  0  0  0
  7  8  2  0  0  0  0
  7 12  1  0  0  0  0
  8  9  1  0  0  0  0
  8 25  1  0  0  0  0
  9 10  1  0  0  0  0
 10 11  2  0  0  0  0
 10 21  1  0  0  0  0
 11 12  1  0  0  0  0
 11 13  1  0  0  0  0
 13 14  1  0  0  0  0
 13 19  2  0  0  0  0
 14 15  1  0  0  0  0
 15 16  2  0  0  0  0
 15 17  1  0  0  0  0
 17 18  1  0  0  0  0
 18 19  1  0  0  0  0
 19 20  1  0  0  0  0
 20 21  2  0  0  0  0
 20 22  1  0  0  0  0
 22 23  1  0  0  0  0
 22 24  1  0  0  0  0
 25 26  2  0  0  0  0
 25 30  1  0  0  0  0
 26 27  1  0  0  0  0
 27 28  2  0  0  0  0
 28 29  1  0  0  0  0
 29 30  2  0  0  0  0
 29 34  1  0  0  0  0
 30 31  1  0  0  0  0
 31 32  2  0  0  0  0
 32 33  1  0  0  0  0
 32 39  1  0  0  0  0
 33 34  2  0  0  0  0
 33 35  1  0  0  0  0
 36 35  1  1  0  0  0
 36 37  1  0  0  0  0
 36 41  1  0  0  0  0
 37 38  2  0  0  0  0
 37 39  1  0  0  0  0
 39 40  2  0  0  0  0
 41 42  1  1  0  0  0
 41 43  1  0  0  0  0
 41 44  1  0  0  0  0
 43 44  1  0  0  0  0
 44 45  2  0  0  0  0
 46 47  2  0  0  0  0
 46 48  1  0  0  0  0
 48 49  2  0  0  0  0
 48 50  1  0  0  0  0
 50 51  2  0  0  0  0
M  END
$$$$