
 OpenBabel05082114293D

 52 62  0  0  1  0  0  0  0  0999 V2000
    1.0455    0.4295   -2.4610 F   0  0  0  0  0  0  0  0  0  0  0  0
    1.1762    1.5294   -1.7072 C   0  0  0  0  0  0  0  0  0  0  0  0
    2.4562    2.0578   -1.4907 C   0  0  0  0  0  0  0  0  0  0  0  0
    2.6595    3.1976   -0.6813 C   0  0  0  0  0  0  0  0  0  0  0  0
    1.4924    3.7220   -0.0786 C   0  0  0  0  0  0  0  0  0  0  0  0
    0.2156    3.2274   -0.3444 C   0  0  0  0  0  0  0  0  0  0  0  0
    0.0549    2.1269   -1.1582 C   0  0  0  0  0  0  0  0  0  0  0  0
   -1.1680    1.6338   -1.3968 F   0  0  0  0  0  0  0  0  0  0  0  0
   -0.8522    3.8188    0.2121 F   0  0  0  0  0  0  0  0  0  0  0  0
    1.5698    4.7108    0.8229 F   0  0  0  0  0  0  0  0  0  0  0  0
    4.0315    3.7770   -0.4661 C   0  0  0  0  0  0  0  0  0  0  0  0
    5.1719    2.9559   -0.5613 C   0  0  0  0  0  0  0  0  0  0  0  0
    6.4769    3.4493   -0.3809 C   0  0  0  0  0  0  0  0  0  0  0  0
    6.7272    4.7765    0.0014 C   0  0  0  0  0  0  0  0  0  0  0  0
    5.5921    5.6081    0.1868 C   0  0  0  0  0  0  0  0  0  0  0  0
    4.2990    5.1311   -0.1437 C   0  0  0  0  0  0  0  0  0  0  0  0
    3.2909    6.2046   -0.3380 C   0  0  0  0  0  0  0  0  0  0  0  0
    2.5852    6.1728   -1.3455 O   0  0  0  0  0  0  0  0  0  0  0  0
    3.2244    7.3130    0.7507 C   0  0  1  0  0  0  0  0  0  0  0  0
    4.6414    7.7791    1.1631 C   0  0  2  0  0  0  0  0  0  0  0  0
    5.7758    6.8999    0.6937 C   0  0  0  0  0  0  0  0  0  0  0  0
    7.0564    7.3750    0.9368 C   0  0  0  0  0  0  0  0  0  0  0  0
    8.1720    6.5934    0.6945 C   0  0  0  0  0  0  0  0  0  0  0  0
    8.0594    5.2768    0.2049 C   0  0  0  0  0  0  0  0  0  0  0  0
    9.3621    4.3883   -0.1283 C   0  0  0  0  0  0  0  0  0  0  0  0
    9.8832    3.4753    1.3088 C   0  0  0  0  0  0  0  0  0  0  0  0
   10.7369    4.3297    0.9774 C   0  0  0  0  0  0  0  0  0  0  0  0
   10.9312    5.2267    0.1324 C   0  0  0  0  0  0  0  0  0  0  0  0
    7.2364    8.6179    1.4748 O   0  0  0  0  0  0  0  0  0  0  0  0
    6.4250    9.6017    0.8252 C   0  0  2  0  0  0  0  0  0  0  0  0
    4.9285    9.2331    0.7776 C   0  0  1  0  0  0  0  0  0  0  0  0
    4.2225    9.5445   -0.5115 C   0  0  0  0  0  0  0  0  0  0  0  0
    2.8815    9.1783   -0.5868 C   0  0  0  0  0  0  0  0  0  0  0  0
    2.3441    8.3821    0.3835 O   0  0  0  0  0  0  0  0  0  0  0  0
    2.0744    9.6049   -1.6275 C   0  0  0  0  0  0  0  0  0  0  0  0
    2.6400   10.3482   -2.6624 C   0  0  0  0  0  0  0  0  0  0  0  0
    4.0169   10.6345   -2.6726 C   0  0  0  0  0  0  0  0  0  0  0  0
    4.8157   10.2177   -1.5795 C   0  0  0  0  0  0  0  0  0  0  0  0
    6.1894   10.4489   -1.6171 C   0  0  0  0  0  0  0  0  0  0  0  0
    7.0676    9.9872   -0.5211 C   0  0  0  0  0  0  0  0  0  0  0  0
    8.2908   10.0062   -0.6788 O   0  0  0  0  0  0  0  0  0  0  0  0
    6.7767   11.0742   -2.7215 C   0  0  0  0  0  0  0  0  0  0  0  0
    6.0051   11.5378   -3.7934 C   0  0  0  0  0  0  0  0  0  0  0  0
    4.6201   11.3106   -3.7523 C   0  0  0  0  0  0  0  0  0  0  0  0
    6.6397   12.2239   -4.9986 C   0  0  0  0  0  0  0  0  0  0  0  0
    7.0354   11.1865   -6.0666 C   0  0  0  0  0  0  0  0  0  0  0  0
    7.7527   11.8223   -7.2589 C   0  0  0  0  0  0  0  0  0  0  0  0
    8.9497   12.6578   -6.8195 C   0  0  0  0  0  0  0  0  0  0  0  0
    8.5269   13.7346   -5.8274 C   0  0  0  0  0  0  0  0  0  0  0  0
    7.8386   13.1179   -4.6159 C   0  0  0  0  0  0  0  0  0  0  0  0
    6.5468   10.8018    1.6114 O   0  0  0  0  0  0  0  0  0  0  0  0
    2.6339    6.7354    1.9200 O   0  0  0  0  0  0  0  0  0  0  0  0
  1  2  1  0  0  0  0
  2  3  2  0  0  0  0
  2  7  1  0  0  0  0
  3  4  1  0  0  0  0
  4  5  2  0  0  0  0
  4 11  1  0  0  0  0
  5  6  1  0  0  0  0
  5 10  1  0  0  0  0
  6  7  2  0  0  0  0
  6  9  1  0  0  0  0
  7  8  1  0  0  0  0
 11 12  2  0  0  0  0
 11 16  1  0  0  0  0
 12 13  1  0  0  0  0
 13 14  2  0  0  0  0
 14 15  1  0  0  0  0
 14 24  1  0  0  0  0
 15 16  2  0  0  0  0
 15 21  1  0  0  0  0
 16 17  1  0  0  0  0
 17 19  1  0  0  0  0
 17 18  2  0  0  0  0
 19 20  1  0  0  0  0
 19 34  1  0  0  0  0
 19 52  1  1  0  0  0
 20 21  1  1  0  0  0
 20 31  1  0  0  0  0
 21 22  2  0  0  0  0
 22 23  1  0  0  0  0
 22 29  1  0  0  0  0
 23 24  2  0  0  0  0
 24 25  1  0  0  0  0
 25 26  1  0  0  0  0
 25 28  1  0  0  0  0
 26 27  2  0  0  0  0
 27 28  2  0  0  0  0
 29 30  1  0  0  0  0
 30 31  1  0  0  0  0
 30 40  1  0  0  0  0
 30 51  1  1  0  0  0
 31 32  1  6  0  0  0
 32 33  2  0  0  0  0
 32 38  1  0  0  0  0
 33 34  1  0  0  0  0
 33 35  1  0  0  0  0
 35 36  2  0  0  0  0
 36 37  1  0  0  0  0
 37 38  2  0  0  0  0
 37 44  1  0  0  0  0
 38 39  1  0  0  0  0
 39 40  1  0  0  0  0
 39 42  2  0  0  0  0
 40 41  2  0  0  0  0
 42 43  1  0  0  0  0
 43 44  2  0  0  0  0
 43 45  1  0  0  0  0
 45 46  1  0  0  0  0
 45 50  1  0  0  0  0
 46 47  1  0  0  0  0
 47 48  1  0  0  0  0
 48 49  1  0  0  0  0
 49 50  1  0  0  0  0
M  END
$$$$