
 OpenBabel11232002583D

 54 63  0  0  1  0  0  0  0  0999 V2000
   13.0871    0.3099  -16.2670 O   0  0  0  0  0  0  0  0  0  0  0  0
   12.8928   -1.0498  -16.2127 C   0  0  0  0  0  0  0  0  0  0  0  0
   12.0316   -1.6236  -15.3644 C   0  0  0  0  0  0  0  0  0  0  0  0
   11.3206   -0.8602  -14.4551 O   0  0  0  0  0  0  0  0  0  0  0  0
    9.9465   -1.2019  -14.4556 C   0  0  2  0  0  0  0  0  0  0  0  0
    9.2065   -0.3197  -13.5835 O   0  0  0  0  0  0  0  0  0  0  0  0
    8.8821    0.9308  -14.0799 C   0  0  0  0  0  0  0  0  0  0  0  0
    7.7713    1.5847  -13.6643 C   0  0  0  0  0  0  0  0  0  0  0  0
    7.4482    2.8471  -14.1877 O   0  0  0  0  0  0  0  0  0  0  0  0
    8.2099    3.4187  -15.2075 C   0  0  0  0  0  0  0  0  0  0  0  0
    9.3175    2.8175  -15.6711 C   0  0  0  0  0  0  0  0  0  0  0  0
    9.8496    1.5701  -15.0509 C   0  0  0  0  0  0  0  0  0  0  0  0
   10.0762    3.3290  -16.8644 C   0  0  3  0  0  0  0  0  0  0  0  0
    9.9805    2.3352  -17.8757 O   0  0  0  0  0  0  0  0  0  0  0  0
   10.6507    2.6022  -19.0299 C   0  0  0  0  0  0  0  0  0  0  0  0
   10.9402    1.7230  -19.8238 O   0  0  0  0  0  0  0  0  0  0  0  0
   10.9950    3.9025  -19.1934 O   0  0  0  0  0  0  0  0  0  0  0  0
   10.1127    4.9104  -18.7177 C   0  0  3  0  0  0  0  0  0  0  0  0
    9.4381    4.5316  -17.4440 C   0  0  0  0  0  0  0  0  0  0  0  0
    8.3621    5.1339  -16.8880 C   0  0  0  0  0  0  0  0  0  0  0  0
    7.7798    4.6106  -15.7383 O   0  3  0  0  0  0  0  0  0  0  0  0
    7.6971    6.3236  -17.4455 C   0  0  3  0  0  0  0  0  0  0  0  0
    6.5593    6.8090  -16.7334 N   0  0  0  0  0  0  0  0  0  0  0  0
    6.3262    6.1871  -17.7841 N   0  0  0  0  0  0  0  0  0  0  0  0
   10.8696    6.0571  -18.3930 O   0  0  0  0  0  0  0  0  0  0  0  0
    6.7990    1.0569  -12.6304 C   0  0  0  0  0  0  0  0  0  0  0  0
    6.5753   -0.3209  -12.5256 C   0  0  0  0  0  0  0  0  0  0  0  0
    5.7258   -0.8315  -11.6283 N   0  3  0  0  0  0  0  0  0  0  0  0
    5.5779   -2.1692  -11.5532 F   0  0  0  0  0  0  0  0  0  0  0  0
    5.0008   -0.0762  -10.8303 N   0  0  0  0  0  0  0  0  0  0  0  0
    5.1199    1.2501  -10.8833 C   0  0  0  0  0  0  0  0  0  0  0  0
    6.0336    1.8837  -11.7554 C   0  0  0  0  0  0  0  0  0  0  0  0
    6.0973    3.2989  -11.6946 C   0  0  0  0  0  0  0  0  0  0  0  0
    5.2314    4.0511  -10.8876 C   0  0  0  0  0  0  0  0  0  0  0  0
    4.3369    3.4237  -10.0529 C   0  0  0  0  0  0  0  0  0  0  0  0
    4.2983    2.0311  -10.0598 C   0  0  0  0  0  0  0  0  0  0  0  0
    3.4119    1.4098   -9.2665 F   0  0  0  0  0  0  0  0  0  0  0  0
    3.4427    4.1149   -9.2843 O   0  0  0  0  0  0  0  0  0  0  0  0
    3.8617    5.4523   -8.8987 C   0  0  1  0  0  0  0  0  0  0  0  0
    4.4757    6.3008   -9.9413 C   0  0  0  0  0  0  0  0  0  0  0  0
    4.5237    7.5190   -9.9072 O   0  0  0  0  0  0  0  0  0  0  0  0
    5.2079    5.5103  -11.0053 C   0  0  0  0  0  0  0  0  0  0  0  0
    5.7674    6.0329  -11.9614 O   0  0  0  0  0  0  0  0  0  0  0  0
    3.0015    6.1119   -8.0014 O   0  0  0  0  0  0  0  0  0  0  0  0
    4.3058    5.7038   -7.4845 C   0  0  1  0  0  0  0  0  0  0  0  0
    4.4211    4.3854   -6.8452 O   0  0  0  0  0  0  0  0  0  0  0  0
    4.1163    5.4151   -6.0859 C   0  0  0  0  0  0  0  0  0  0  0  0
    4.6452    5.8418   -5.0845 O   0  0  0  0  0  0  0  0  0  0  0  0
    9.7008   -2.6105  -13.9530 C   0  0  0  0  0  0  0  0  0  0  0  0
    8.7004   -2.9507  -13.3420 O   0  0  0  0  0  0  0  0  0  0  0  0
   10.7887   -3.5748  -14.3818 C   0  0  0  0  0  0  0  0  0  0  0  0
   10.8250   -4.6967  -13.9079 O   0  0  0  0  0  0  0  0  0  0  0  0
   11.8175   -3.1004  -15.4008 C   0  0  0  0  0  0  0  0  0  0  0  0
   12.3211   -3.8503  -16.2159 O   0  0  0  0  0  0  0  0  0  0  0  0
  1  2  1  0  0  0  0
  2  3  2  0  0  0  0
  3  4  1  0  0  0  0
  3 53  1  0  0  0  0
  4  5  1  0  0  0  0
  5  6  1  1  0  0  0
  5 49  1  0  0  0  0
  6  7  1  0  0  0  0
  7  8  2  0  0  0  0
  7 12  1  0  0  0  0
  8  9  1  0  0  0  0
  8 26  1  0  0  0  0
  9 10  1  0  0  0  0
 10 11  2  0  0  0  0
 10 21  1  0  0  0  0
 11 12  1  0  0  0  0
 11 13  1  0  0  0  0
 13 14  1  0  0  0  0
 13 19  1  0  0  0  0
 14 15  1  0  0  0  0
 15 16  2  0  0  0  0
 15 17  1  0  0  0  0
 17 18  1  0  0  0  0
 18 19  1  0  0  0  0
 18 25  1  0  0  0  0
 19 20  2  0  0  0  0
 20 21  1  0  0  0  0
 20 22  1  0  0  0  0
 22 23  1  0  0  0  0
 22 24  1  0  0  0  0
 23 24  2  0  0  0  0
 26 27  2  0  0  0  0
 26 32  1  0  0  0  0
 27 28  1  0  0  0  0
 28 29  1  0  0  0  0
 28 30  2  0  0  0  0
 30 31  1  0  0  0  0
 31 32  2  0  0  0  0
 31 36  1  0  0  0  0
 32 33  1  0  0  0  0
 33 34  2  0  0  0  0
 34 35  1  0  0  0  0
 34 42  1  0  0  0  0
 35 36  2  0  0  0  0
 35 38  1  0  0  0  0
 36 37  1  0  0  0  0
 39 38  1  6  0  0  0
 39 40  1  0  0  0  0
 39 44  1  0  0  0  0
 39 45  1  0  0  0  0
 40 41  2  0  0  0  0
 40 42  1  0  0  0  0
 42 43  2  0  0  0  0
 45 44  1  1  0  0  0
 45 46  1  0  0  0  0
 45 47  1  0  0  0  0
 46 47  1  0  0  0  0
 47 48  2  0  0  0  0
 49 50  2  0  0  0  0
 49 51  1  0  0  0  0
 51 52  2  0  0  0  0
 51 53  1  0  0  0  0
 53 54  2  0  0  0  0
M  CHG  2  21   1  28   1
M  END
$$$$