
 OpenBabel11252023413D

 54 62  0  0  1  0  0  0  0  0999 V2000
   -1.7102   -0.9130    5.6039 O   0  0  0  0  0  0  0  0  0  0  0  0
   -1.5992   -1.1708    4.2611 C   0  0  0  0  0  0  0  0  0  0  0  0
   -0.7681   -0.4836    3.4702 C   0  0  0  0  0  0  0  0  0  0  0  0
   -0.0081    0.5543    3.9831 O   0  0  0  0  0  0  0  0  0  0  0  0
    1.3237    0.5533    3.4749 C   0  0  2  0  0  0  0  0  0  0  0  0
    2.1527    1.4755    4.2004 O   0  0  0  0  0  0  0  0  0  0  0  0
    2.2776    1.2258    5.5638 C   0  0  0  0  0  0  0  0  0  0  0  0
    2.4839    2.2347    6.4330 C   0  0  0  0  0  0  0  0  0  0  0  0
    2.6757    2.0624    7.7937 O   0  0  0  0  0  0  0  0  0  0  0  0
    2.7165    0.7829    8.3059 C   0  0  0  0  0  0  0  0  0  0  0  0
    2.5579   -0.3290    7.5095 C   0  0  0  0  0  0  0  0  0  0  0  0
    2.2674   -0.2014    6.0526 C   0  0  0  0  0  0  0  0  0  0  0  0
    2.6508   -1.5659    8.1369 C   0  0  0  0  0  0  0  0  0  0  0  0
    2.4715   -2.7121    7.3533 O   0  0  0  0  0  0  0  0  0  0  0  0
    2.7816   -3.9609    7.8519 C   0  0  0  0  0  0  0  0  0  0  0  0
    2.7573   -4.9824    7.0761 N   0  0  0  0  0  0  0  0  0  0  0  0
    3.1611   -4.0811    9.1354 O   0  0  0  0  0  0  0  0  0  0  0  0
    2.9064   -3.0500   10.0840 C   0  0  3  0  0  0  0  0  0  0  0  0
    2.8804   -1.6836    9.4939 C   0  0  0  0  0  0  0  0  0  0  0  0
    2.9964   -0.5084   10.2444 C   0  0  0  0  0  0  0  0  0  0  0  0
    2.9343    0.7137    9.6330 N   0  0  0  0  0  0  0  0  0  0  0  0
    3.1657   -0.5394   11.7470 C   0  0  0  0  0  0  0  0  0  0  0  0
    4.5069   -0.6047   12.2535 O   0  0  0  0  0  0  0  0  0  0  0  0
    3.7419    0.6101   12.3871 O   0  0  0  0  0  0  0  0  0  0  0  0
    1.6552   -3.2774   10.7077 O   0  0  0  0  0  0  0  0  0  0  0  0
    2.6145    3.6381    6.0079 C   0  0  0  0  0  0  0  0  0  0  0  0
    3.8932    4.0876    5.7130 C   0  0  0  0  0  0  0  0  0  0  0  0
    4.0986    5.3477    5.3276 N   0  3  0  0  0  0  0  0  0  0  0  0
    5.3527    5.7472    5.0456 F   0  0  0  0  0  0  0  0  0  0  0  0
    3.1232    6.2275    5.2191 N   0  0  0  0  0  0  0  0  0  0  0  0
    1.8603    5.8562    5.4646 C   0  0  0  0  0  0  0  0  0  0  0  0
    1.5449    4.5416    5.8726 C   0  0  0  0  0  0  0  0  0  0  0  0
    0.1937    4.1968    6.0978 C   0  0  0  0  0  0  0  0  0  0  0  0
   -0.8223    5.1206    5.8420 C   0  0  0  0  0  0  0  0  0  0  0  0
   -2.2265    4.7318    5.9586 C   0  0  0  0  0  0  0  0  0  0  0  0
   -2.5721    3.7732    6.6276 O   0  0  0  0  0  0  0  0  0  0  0  0
   -3.2113    5.5153    5.1260 C   0  0  0  0  0  0  0  0  0  0  0  0
   -4.2894    5.0256    4.8097 O   0  0  0  0  0  0  0  0  0  0  0  0
   -2.6961    6.8207    4.5572 C   0  0  1  0  0  0  0  0  0  0  0  0
   -1.4766    7.3331    5.1073 O   0  0  0  0  0  0  0  0  0  0  0  0
   -0.5180    6.4026    5.4182 C   0  0  0  0  0  0  0  0  0  0  0  0
    0.8276    6.8015    5.3019 C   0  0  0  0  0  0  0  0  0  0  0  0
    1.1075    8.0827    4.7652 N   0  0  0  0  0  0  0  0  0  0  0  0
   -2.6722    6.7231    3.0468 C   0  0  1  0  0  0  0  0  0  0  0  0
   -3.9500    6.5436    2.3940 O   0  0  0  0  0  0  0  0  0  0  0  0
   -1.7396    7.5797    2.3710 O   0  0  0  0  0  0  0  0  0  0  0  0
   -1.5182    6.2636    2.2994 C   0  0  0  0  0  0  0  0  0  0  0  0
   -0.5753    5.5615    2.6304 O   0  0  0  0  0  0  0  0  0  0  0  0
    1.2614    0.9193    2.0041 C   0  0  0  0  0  0  0  0  0  0  0  0
    1.9250    1.7864    1.4564 O   0  0  0  0  0  0  0  0  0  0  0  0
    0.2942    0.0354    1.2434 C   0  0  0  0  0  0  0  0  0  0  0  0
    0.3135    0.0084    0.0244 O   0  0  0  0  0  0  0  0  0  0  0  0
   -0.6613   -0.8514    2.0288 C   0  0  0  0  0  0  0  0  0  0  0  0
   -1.2206   -1.8094    1.5255 O   0  0  0  0  0  0  0  0  0  0  0  0
  1  2  1  0  0  0  0
  2  3  2  0  0  0  0
  3  4  1  0  0  0  0
  3 53  1  0  0  0  0
  4  5  1  0  0  0  0
  5  6  1  1  0  0  0
  5 49  1  0  0  0  0
  6  7  1  0  0  0  0
  7  8  2  0  0  0  0
  7 12  1  0  0  0  0
  8  9  1  0  0  0  0
  8 26  1  0  0  0  0
  9 10  1  0  0  0  0
 10 11  2  0  0  0  0
 10 21  1  0  0  0  0
 11 12  1  0  0  0  0
 11 13  1  0  0  0  0
 13 14  1  0  0  0  0
 13 19  2  0  0  0  0
 14 15  1  0  0  0  0
 15 16  2  0  0  0  0
 15 17  1  0  0  0  0
 17 18  1  0  0  0  0
 18 19  1  0  0  0  0
 18 25  1  0  0  0  0
 19 20  1  0  0  0  0
 20 21  2  0  0  0  0
 20 22  1  0  0  0  0
 22 23  1  0  0  0  0
 22 24  1  0  0  0  0
 23 24  1  0  0  0  0
 26 27  2  0  0  0  0
 26 32  1  0  0  0  0
 27 28  1  0  0  0  0
 28 29  1  0  0  0  0
 28 30  2  0  0  0  0
 30 31  1  0  0  0  0
 31 32  2  0  0  0  0
 31 42  1  0  0  0  0
 32 33  1  0  0  0  0
 33 34  2  0  0  0  0
 34 35  1  0  0  0  0
 34 41  1  0  0  0  0
 35 36  2  0  0  0  0
 35 37  1  0  0  0  0
 37 38  2  0  0  0  0
 39 37  1  1  0  0  0
 39 40  1  0  0  0  0
 39 44  1  0  0  0  0
 40 41  1  0  0  0  0
 41 42  2  0  0  0  0
 42 43  1  0  0  0  0
 44 45  1  6  0  0  0
 44 46  1  0  0  0  0
 44 47  1  0  0  0  0
 46 47  1  0  0  0  0
 47 48  2  0  0  0  0
 49 50  2  0  0  0  0
 49 51  1  0  0  0  0
 51 52  2  0  0  0  0
 51 53  1  0  0  0  0
 53 54  2  0  0  0  0
M  CHG  1  28   1
M  END
$$$$