
 OpenBabel11272002353D

 54 62  0  0  1  0  0  0  0  0999 V2000
   -2.1018    2.1852   -4.3994 F   0  0  0  0  0  0  0  0  0  0  0  0
   -1.8173    1.8587   -3.1236 C   0  0  0  0  0  0  0  0  0  0  0  0
   -0.8140    1.0292   -2.8332 C   0  0  0  0  0  0  0  0  0  0  0  0
   -0.0760    0.4612   -3.8533 O   0  0  0  0  0  0  0  0  0  0  0  0
    1.2587    0.0957   -3.5403 C   0  0  2  0  0  0  0  0  0  0  0  0
    1.8442   -0.5885   -4.6702 O   0  0  0  0  0  0  0  0  0  0  0  0
    1.9480    0.1066   -5.8725 C   0  0  0  0  0  0  0  0  0  0  0  0
    1.9298   -0.5344   -7.0665 C   0  0  0  0  0  0  0  0  0  0  0  0
    2.0141    0.1613   -8.2838 O   0  0  0  0  0  0  0  0  0  0  0  0
    2.1417    1.5551   -8.2951 C   0  0  0  0  0  0  0  0  0  0  0  0
    2.2769    2.2423   -7.1450 C   0  0  0  0  0  0  0  0  0  0  0  0
    2.1995    1.5867   -5.8026 C   0  0  0  0  0  0  0  0  0  0  0  0
    2.4867    3.7332   -7.1188 C   0  0  3  0  0  0  0  0  0  0  0  0
    3.7211    3.9805   -6.5025 O   0  0  0  0  0  0  0  0  0  0  0  0
    4.1292    5.2804   -6.4341 C   0  0  0  0  0  0  0  0  0  0  0  0
    4.9721    5.6288   -5.6147 O   0  0  0  0  0  0  0  0  0  0  0  0
    3.5666    6.1376   -7.3072 O   0  0  0  0  0  0  0  0  0  0  0  0
    2.9081    5.7045   -8.4056 C   0  0  0  0  0  0  0  0  0  0  0  0
    2.5544    6.4500   -9.3178 O   0  0  0  0  0  0  0  0  0  0  0  0
    2.5912    4.2873   -8.4695 C   0  0  0  0  0  0  0  0  0  0  0  0
    2.4018    3.5753   -9.6038 C   0  0  0  0  0  0  0  0  0  0  0  0
    2.1426    2.2048   -9.5155 O   0  3  0  0  0  0  0  0  0  0  0  0
    2.4391    4.1335  -10.9728 C   0  0  3  0  0  0  0  0  0  0  0  0
    1.3165    3.8821  -11.8018 N   0  0  0  0  0  0  0  0  0  0  0  0
    2.3197    3.1876  -12.0386 N   0  0  0  0  0  0  0  0  0  0  0  0
    1.8624   -2.0291   -7.1729 C   0  0  0  0  0  0  0  0  0  0  0  0
    2.5493   -2.7842   -6.2148 C   0  0  0  0  0  0  0  0  0  0  0  0
    2.4883   -4.1156   -6.1931 N   0  3  0  0  0  0  0  0  0  0  0  0
    3.1320   -4.7817   -5.2151 F   0  0  0  0  0  0  0  0  0  0  0  0
    1.8084   -4.8026   -7.0833 N   0  0  0  0  0  0  0  0  0  0  0  0
    1.1499   -4.1618   -8.0507 C   0  0  0  0  0  0  0  0  0  0  0  0
    1.1545   -2.7531   -8.1661 C   0  0  0  0  0  0  0  0  0  0  0  0
    0.4366   -2.1845   -9.2489 C   0  0  0  0  0  0  0  0  0  0  0  0
   -0.2820   -2.9811  -10.1512 C   0  0  0  0  0  0  0  0  0  0  0  0
   -0.9924   -2.3623  -11.2765 C   0  0  0  0  0  0  0  0  0  0  0  0
   -0.8146   -1.1809  -11.5337 O   0  0  0  0  0  0  0  0  0  0  0  0
   -1.8858   -3.2760  -12.0921 C   0  0  0  0  0  0  0  0  0  0  0  0
   -2.2346   -2.9607  -13.2184 O   0  0  0  0  0  0  0  0  0  0  0  0
   -2.2477   -4.5624  -11.3825 C   0  0  1  0  0  0  0  0  0  0  0  0
   -1.1035   -5.1784  -10.7554 O   0  0  0  0  0  0  0  0  0  0  0  0
   -0.3395   -4.3505   -9.9826 C   0  0  0  0  0  0  0  0  0  0  0  0
    0.4083   -4.9206   -8.9558 C   0  0  0  0  0  0  0  0  0  0  0  0
    0.3858   -6.2542   -8.8034 F   0  0  0  0  0  0  0  0  0  0  0  0
   -3.3536   -4.3555  -10.3798 C   0  0  1  0  0  0  0  0  0  0  0  0
   -3.0918   -3.4527   -9.2805 O   0  0  0  0  0  0  0  0  0  0  0  0
   -4.6670   -4.2768  -10.9305 O   0  0  0  0  0  0  0  0  0  0  0  0
   -4.3992   -5.4197  -10.1120 C   0  0  3  0  0  0  0  0  0  0  0  0
   -4.9809   -5.3716   -8.7958 O   0  0  0  0  0  0  0  0  0  0  0  0
    1.3130   -0.8082   -2.3229 C   0  0  0  0  0  0  0  0  0  0  0  0
    1.8605   -1.9000   -2.2784 O   0  0  0  0  0  0  0  0  0  0  0  0
    0.6191   -0.1804   -1.1395 C   0  0  0  0  0  0  0  0  0  0  0  0
    1.0854   -0.3148   -0.0221 O   0  0  0  0  0  0  0  0  0  0  0  0
   -0.5788    0.7134   -1.3965 C   0  0  0  0  0  0  0  0  0  0  0  0
   -1.2715    1.1426   -0.4913 O   0  0  0  0  0  0  0  0  0  0  0  0
  1  2  1  0  0  0  0
  2  3  2  0  0  0  0
  3  4  1  0  0  0  0
  3 53  1  0  0  0  0
  4  5  1  0  0  0  0
  5  6  1  6  0  0  0
  5 49  1  0  0  0  0
  6  7  1  0  0  0  0
  7  8  2  0  0  0  0
  7 12  1  0  0  0  0
  8  9  1  0  0  0  0
  8 26  1  0  0  0  0
  9 10  1  0  0  0  0
 10 11  2  0  0  0  0
 10 22  1  0  0  0  0
 11 12  1  0  0  0  0
 11 13  1  0  0  0  0
 13 14  1  0  0  0  0
 13 20  1  0  0  0  0
 14 15  1  0  0  0  0
 15 16  2  0  0  0  0
 15 17  1  0  0  0  0
 17 18  1  0  0  0  0
 18 19  2  0  0  0  0
 18 20  1  0  0  0  0
 20 21  2  0  0  0  0
 21 22  1  0  0  0  0
 21 23  1  0  0  0  0
 23 24  1  0  0  0  0
 23 25  1  0  0  0  0
 24 25  2  0  0  0  0
 26 27  2  0  0  0  0
 26 32  1  0  0  0  0
 27 28  1  0  0  0  0
 28 29  1  0  0  0  0
 28 30  2  0  0  0  0
 30 31  1  0  0  0  0
 31 32  2  0  0  0  0
 31 42  1  0  0  0  0
 32 33  1  0  0  0  0
 33 34  2  0  0  0  0
 34 35  1  0  0  0  0
 34 41  1  0  0  0  0
 35 36  2  0  0  0  0
 35 37  1  0  0  0  0
 37 38  2  0  0  0  0
 39 37  1  1  0  0  0
 39 40  1  0  0  0  0
 39 44  1  0  0  0  0
 40 41  1  0  0  0  0
 41 42  2  0  0  0  0
 42 43  1  0  0  0  0
 44 45  1  1  0  0  0
 44 46  1  0  0  0  0
 44 47  1  0  0  0  0
 46 47  1  0  0  0  0
 47 48  1  0  0  0  0
 49 50  2  0  0  0  0
 49 51  1  0  0  0  0
 51 52  2  0  0  0  0
 51 53  1  0  0  0  0
 53 54  2  0  0  0  0
M  CHG  2  22   1  28   1
M  END
$$$$