
 OpenBabel10242013333D

 51 58  0  0  1  0  0  0  0  0999 V2000
    3.5373   -6.0418    7.1827 O   0  0  0  0  0  0  0  0  0  0  0  0
    3.0235   -4.8336    7.5786 C   0  0  0  0  0  0  0  0  0  0  0  0
    2.8424   -3.8090    6.7367 C   0  0  0  0  0  0  0  0  0  0  0  0
    3.2009   -3.8948    5.4036 O   0  0  0  0  0  0  0  0  0  0  0  0
    2.1738   -3.4055    4.5393 C   0  0  2  0  0  0  0  0  0  0  0  0
    2.4667   -3.6768    3.1598 O   0  0  0  0  0  0  0  0  0  0  0  0
    2.6226   -5.0167    2.8229 C   0  0  0  0  0  0  0  0  0  0  0  0
    3.4516   -5.3981    1.8273 C   0  0  0  0  0  0  0  0  0  0  0  0
    3.6542   -6.7310    1.4696 O   0  0  0  0  0  0  0  0  0  0  0  0
    2.9142   -7.7205    2.1004 C   0  0  0  0  0  0  0  0  0  0  0  0
    1.9998   -7.4257    3.0341 C   0  0  0  0  0  0  0  0  0  0  0  0
    1.7808   -6.0442    3.5409 C   0  0  0  0  0  0  0  0  0  0  0  0
    1.1766   -8.5328    3.5921 C   0  0  0  0  0  0  0  0  0  0  0  0
    0.1788   -8.2578    4.3670 N   0  0  0  0  0  0  0  0  0  0  0  0
   -0.6056   -9.2901    4.8346 C   0  0  0  0  0  0  0  0  0  0  0  0
   -1.6762   -9.0116    5.3582 O   0  0  0  0  0  0  0  0  0  0  0  0
   -0.2274  -10.6121    4.7511 N   0  0  0  0  0  0  0  0  0  0  0  0
    0.7656  -10.9221    3.9878 C   0  0  0  0  0  0  0  0  0  0  0  0
    1.5472   -9.9286    3.2356 C   0  0  0  0  0  0  0  0  0  0  0  0
    2.5380  -10.1102    2.3374 C   0  0  0  0  0  0  0  0  0  0  0  0
    3.1624   -9.0187    1.7413 N   0  0  0  0  0  0  0  0  0  0  0  0
    2.9778  -11.4997    1.9518 C   0  0  0  0  0  0  0  0  0  0  0  0
    2.2992  -12.4998    2.1211 O   0  0  0  0  0  0  0  0  0  0  0  0
    4.5730  -11.6139    1.2185 S   0  0  0  0  0  0  0  0  0  0  0  0
    4.2126   -4.4421    1.0019 C   0  0  0  0  0  0  0  0  0  0  0  0
    5.4469   -4.1577    1.4689 N   0  0  0  0  0  0  0  0  0  0  0  0
    6.1652   -3.3087    0.7292 C   0  0  0  0  0  0  0  0  0  0  0  0
    5.7844   -2.7479   -0.4266 N   0  0  0  0  0  0  0  0  0  0  0  0
    4.5652   -3.0497   -0.8799 C   0  0  0  0  0  0  0  0  0  0  0  0
    3.6938   -3.9086   -0.1943 C   0  0  0  0  0  0  0  0  0  0  0  0
    2.4083   -4.1668   -0.7383 C   0  0  0  0  0  0  0  0  0  0  0  0
    2.0215   -3.5843   -1.9495 C   0  0  0  0  0  0  0  0  0  0  0  0
    2.9038   -2.7700   -2.6457 C   0  0  0  0  0  0  0  0  0  0  0  0
    4.1549   -2.4957   -2.0895 C   0  0  0  0  0  0  0  0  0  0  0  0
    2.6470   -2.1968   -3.8614 O   0  0  0  0  0  0  0  0  0  0  0  0
    1.5412   -2.7289   -4.6030 C   0  0  2  0  0  0  0  0  0  0  0  0
    0.3370   -3.0734   -3.7614 C   0  0  0  0  0  0  0  0  0  0  0  0
   -0.8191   -2.8148   -4.0630 O   0  0  0  0  0  0  0  0  0  0  0  0
    0.6738   -3.8108   -2.4868 C   0  0  0  0  0  0  0  0  0  0  0  0
   -0.1371   -4.5353   -1.9336 O   0  0  0  0  0  0  0  0  0  0  0  0
    1.9702   -3.9013   -5.4288 C   0  0  1  0  0  0  0  0  0  0  0  0
    2.5036   -5.0423   -4.7121 O   0  0  0  0  0  0  0  0  0  0  0  0
    1.0935   -4.2107   -6.5135 O   0  0  0  0  0  0  0  0  0  0  0  0
    2.3389   -3.8164   -6.8416 C   0  0  0  0  0  0  0  0  0  0  0  0
    3.1980   -4.4079   -7.4566 O   0  0  0  0  0  0  0  0  0  0  0  0
    1.9872   -1.9079    4.7356 C   0  0  0  0  0  0  0  0  0  0  0  0
    1.7340   -1.0952    3.8577 O   0  0  0  0  0  0  0  0  0  0  0  0
    2.0370   -1.4946    6.1911 C   0  0  0  0  0  0  0  0  0  0  0  0
    1.9052   -0.3228    6.5089 O   0  0  0  0  0  0  0  0  0  0  0  0
    2.2354   -2.5544    7.2571 C   0  0  0  0  0  0  0  0  0  0  0  0
    1.8775   -2.3900    8.4109 O   0  0  0  0  0  0  0  0  0  0  0  0
  1  2  1  0  0  0  0
  2  3  2  0  0  0  0
  3  4  1  0  0  0  0
  3 50  1  0  0  0  0
  4  5  1  0  0  0  0
  5  6  1  6  0  0  0
  5 46  1  0  0  0  0
  6  7  1  0  0  0  0
  7  8  2  0  0  0  0
  7 12  1  0  0  0  0
  8  9  1  0  0  0  0
  8 25  1  0  0  0  0
  9 10  1  0  0  0  0
 10 11  2  0  0  0  0
 10 21  1  0  0  0  0
 11 12  1  0  0  0  0
 11 13  1  0  0  0  0
 13 14  2  0  0  0  0
 13 19  1  0  0  0  0
 14 15  1  0  0  0  0
 15 16  2  0  0  0  0
 15 17  1  0  0  0  0
 17 18  2  0  0  0  0
 18 19  1  0  0  0  0
 19 20  2  0  0  0  0
 20 21  1  0  0  0  0
 20 22  1  0  0  0  0
 22 23  2  0  0  0  0
 22 24  1  0  0  0  0
 25 26  2  0  0  0  0
 25 30  1  0  0  0  0
 26 27  1  0  0  0  0
 27 28  2  0  0  0  0
 28 29  1  0  0  0  0
 29 30  2  0  0  0  0
 29 34  1  0  0  0  0
 30 31  1  0  0  0  0
 31 32  2  0  0  0  0
 32 33  1  0  0  0  0
 32 39  1  0  0  0  0
 33 34  2  0  0  0  0
 33 35  1  0  0  0  0
 36 35  1  1  0  0  0
 36 37  1  0  0  0  0
 36 41  1  0  0  0  0
 37 38  2  0  0  0  0
 37 39  1  0  0  0  0
 39 40  2  0  0  0  0
 41 42  1  1  0  0  0
 41 43  1  0  0  0  0
 41 44  1  0  0  0  0
 43 44  1  0  0  0  0
 44 45  2  0  0  0  0
 46 47  2  0  0  0  0
 46 48  1  0  0  0  0
 48 49  2  0  0  0  0
 48 50  1  0  0  0  0
 50 51  2  0  0  0  0
M  END
$$$$