
 OpenBabel10252017003D

 99115  0  0  1  0  0  0  0  0999 V2000
    4.3543    7.2985    3.5201 F   0  0  0  0  0  0  0  0  0  0  0  0
    3.2041    7.6704    2.8825 C   0  0  3  0  0  0  0  0  0  0  0  0
    2.2412    8.2805    3.9188 C   0  0  0  0  0  0  0  0  0  0  0  0
    0.7867    7.7638    3.7765 C   0  0  3  0  0  0  0  0  0  0  0  0
   -0.1393    8.4970    4.7614 C   0  0  0  0  0  0  0  0  0  0  0  0
   -0.7483    7.5963    5.8229 C   0  0  0  0  0  0  0  0  0  0  0  0
   -1.2584    6.2802    5.2310 C   0  0  3  0  0  0  0  0  0  0  0  0
   -0.0839    5.4830    4.6925 C   0  0  0  0  0  0  0  0  0  0  0  0
    0.8252    6.2368    3.8804 C   0  0  0  0  0  0  0  0  0  0  0  0
    1.8593    5.6126    3.1568 C   0  0  0  0  0  0  0  0  0  0  0  0
    2.6244    6.4522    2.1420 C   0  0  3  0  0  0  0  0  0  0  0  0
    3.6666    5.7224    1.2198 C   0  0  3  0  0  0  0  0  0  0  0  0
    3.6198    4.1810    1.4154 C   0  0  0  0  0  0  0  0  0  0  0  0
    3.4010    3.7035    2.8504 C   0  0  0  0  0  0  0  0  0  0  0  0
    2.1445    4.2859    3.4172 C   0  0  0  0  0  0  0  0  0  0  0  0
    1.3099    3.5563    4.2927 C   0  0  0  0  0  0  0  0  0  0  0  0
    0.1400    4.0868    4.9115 C   0  0  0  0  0  0  0  0  0  0  0  0
   -0.7312    3.1517    5.7380 C   0  0  0  0  0  0  0  0  0  0  0  0
   -1.4710    3.5663    6.8627 C   0  0  0  0  0  0  0  0  0  0  0  0
   -2.3811    2.7420    7.5802 C   0  0  0  0  0  0  0  0  0  0  0  0
   -3.2418    3.3717    8.6736 C   0  0  3  0  0  0  0  0  0  0  0  0
   -2.3404    3.8259    9.8323 C   0  0  0  0  0  0  0  0  0  0  0  0
   -3.1254    4.4160   10.9924 C   0  0  0  0  0  0  0  0  0  0  0  0
   -4.1830    3.4411   11.5184 C   0  0  3  0  0  0  0  0  0  0  0  0
   -5.1528    3.0607   10.3752 C   0  0  3  0  0  0  0  0  0  0  0  0
   -4.4053    2.4579    9.1470 C   0  0  3  0  0  0  0  0  0  0  0  0
   -3.8749    1.0306    9.3644 C   0  0  0  0  0  0  0  0  0  0  0  0
   -3.3320    0.4225    8.0544 C   0  0  3  0  0  0  0  0  0  0  0  0
   -2.4428    1.3795    7.2825 C   0  0  0  0  0  0  0  0  0  0  0  0
   -1.6430    0.9048    6.2352 C   0  0  0  0  0  0  0  0  0  0  0  0
   -0.8476    1.7732    5.4672 C   0  0  0  0  0  0  0  0  0  0  0  0
   -0.1767    1.2126    4.4465 F   0  0  0  0  0  0  0  0  0  0  0  0
   -4.4792   -0.0879    7.1718 C   0  0  0  0  0  0  0  0  0  0  0  0
   -6.2963    2.1585   10.8580 C   0  0  0  0  0  0  0  0  0  0  0  0
   -4.8879    4.0710   12.7238 C   0  0  0  0  0  0  0  0  0  0  0  0
    3.4614    6.1209   -0.3198 C   0  0  3  0  0  0  0  0  0  0  0  0
    3.6846    7.5536   -0.5182 O   0  0  0  0  0  0  0  0  0  0  0  0
    4.5008    7.9711   -1.5431 C   0  0  0  0  0  0  0  0  0  0  0  0
    5.5462    7.2045   -2.0118 C   0  0  0  0  0  0  0  0  0  0  0  0
    5.6797    5.8005   -1.4911 C   0  0  3  0  0  0  0  0  0  0  0  0
    4.2569    5.2294   -1.3159 C   0  0  3  0  0  0  0  0  0  0  0  0
    3.5675    5.1846   -2.6072 O   0  0  0  0  0  0  0  0  0  0  0  0
    3.7033    4.0430   -3.3524 C   0  0  0  0  0  0  0  0  0  0  0  0
    3.8611    2.7697   -2.8288 C   0  0  0  0  0  0  0  0  0  0  0  0
    4.1155    1.6758   -3.6666 C   0  0  0  0  0  0  0  0  0  0  0  0
    4.1799    1.7858   -5.0677 C   0  0  0  0  0  0  0  0  0  0  0  0
    3.8819    3.0659   -5.5798 C   0  0  0  0  0  0  0  0  0  0  0  0
    3.6488    4.1750   -4.7384 C   0  0  0  0  0  0  0  0  0  0  0  0
    4.5303    0.6074   -5.9299 C   0  0  0  0  0  0  0  0  0  0  0  0
    4.8265   -0.6580   -5.3750 C   0  0  0  0  0  0  0  0  0  0  0  0
    5.1510   -1.7711   -6.1608 C   0  0  0  0  0  0  0  0  0  0  0  0
    5.1947   -1.6588   -7.5415 C   0  0  0  0  0  0  0  0  0  0  0  0
    4.9134   -0.4327   -8.1318 C   0  0  0  0  0  0  0  0  0  0  0  0
    4.5878    0.6802   -7.3378 C   0  0  0  0  0  0  0  0  0  0  0  0
    6.4628    5.0001   -2.4098 O   0  0  0  0  0  0  0  0  0  0  0  0
    6.4024    7.7092   -3.0135 C   0  0  0  0  0  0  0  0  0  0  0  0
    6.1077    8.8898   -3.7511 C   0  0  0  0  0  0  0  0  0  0  0  0
    5.0036    9.6384   -3.3281 C   0  0  0  0  0  0  0  0  0  0  0  0
    4.2643    9.2140   -2.1575 C   0  0  0  0  0  0  0  0  0  0  0  0
    3.2524    9.9521   -1.7028 F   0  0  0  0  0  0  0  0  0  0  0  0
    4.6594   10.7454   -4.1454 C   0  0  0  0  0  0  0  0  0  0  0  0
    3.4139   11.8677   -3.7329 Cl  0  0  0  0  0  0  0  0  0  0  0  0
    5.2832   10.9723   -5.4078 C   0  0  0  0  0  0  0  0  0  0  0  0
    6.4005   10.2566   -5.8751 C   0  0  0  0  0  0  0  0  0  0  0  0
    6.8500    9.2694   -4.9448 C   0  0  0  0  0  0  0  0  0  0  0  0
    8.3881    8.4710   -5.2254 Cl  0  0  0  0  0  0  0  0  0  0  0  0
    7.0302   10.5409   -7.2652 C   0  0  0  0  0  0  0  0  0  0  0  0
    7.6414    9.5035   -8.0552 C   0  0  0  0  0  0  0  0  0  0  0  0
    8.4339    9.6905   -9.3030 C   0  0  0  0  0  0  0  0  0  0  0  0
    9.3240    8.7817  -10.2210 C   0  0  0  0  0  0  0  0  0  0  0  0
   10.0491    9.3293  -11.2913 C   0  0  0  0  0  0  0  0  0  0  0  0
   11.0919    8.6143  -11.9444 N   0  0  0  0  0  0  0  0  0  0  0  0
    9.8372   10.6694  -11.5366 C   0  0  0  0  0  0  0  0  0  0  0  0
    9.0061   11.4417  -10.8304 N   0  0  0  0  0  0  0  0  0  0  0  0
    8.3436   11.0288   -9.7450 N   0  3  0  0  0  0  0  0  0  0  0  0
    7.5974   11.9872   -9.1005 N   0  3  0  0  0  0  0  0  0  0  0  0
    7.0228   11.8087   -7.8807 C   0  0  0  0  0  0  0  0  0  0  0  0
    6.4142   12.8993   -7.3312 O   0  0  0  0  0  0  0  0  0  0  0  0
    7.4198   13.5390   -9.8473 Cl  0  0  0  0  0  0  0  0  0  0  0  0
    9.6540    7.2416  -10.0297 N   0  3  0  0  0  0  0  0  0  0  0  0
    9.8409    6.3517  -11.1177 N   0  3  0  0  0  0  0  0  0  0  0  0
    9.0437    6.6078  -12.6342 Cl  0  0  0  0  0  0  0  0  0  0  0  0
   10.4900    5.1311  -10.9786 C   0  0  0  0  0  0  0  0  0  0  0  0
   10.8188    4.5547   -9.7203 C   0  0  0  0  0  0  0  0  0  0  0  0
   10.4552    5.3321   -8.6237 C   0  0  0  0  0  0  0  0  0  0  0  0
    9.9969    6.7304   -8.7939 C   0  0  0  0  0  0  0  0  0  0  0  0
   10.0529    7.6229   -7.7205 N   0  0  0  0  0  0  0  0  0  0  0  0
   10.5589    4.7481   -7.4260 N   0  0  0  0  0  0  0  0  0  0  0  0
   10.9229    3.4607   -7.1941 N   0  3  0  0  0  0  0  0  0  0  0  0
   11.4533    2.6723   -8.1925 C   0  0  0  0  0  0  0  0  0  0  0  0
   11.4507    3.2875   -9.4700 N   0  3  0  0  0  0  0  0  0  0  0  0
   12.1528    2.6702  -10.4823 N   0  0  0  0  0  0  0  0  0  0  0  0
   12.8310    1.5066  -10.2770 N   0  3  0  0  0  0  0  0  0  0  0  0
   13.7472    0.9519  -11.3418 C   0  0  0  0  0  0  0  0  0  0  0  0
   12.6960    0.8510   -9.1149 C   0  0  0  0  0  0  0  0  0  0  0  0
   12.0025    1.4083   -8.0964 N   0  3  0  0  0  0  0  0  0  0  0  0
   11.8608    0.3960   -6.7174 Cl  0  0  0  0  0  0  0  0  0  0  0  0
   10.7354    2.9910   -5.5589 Cl  0  0  0  0  0  0  0  0  0  0  0  0
   -2.4632    6.5342    3.9254 Cl  0  0  0  0  0  0  0  0  0  0  0  0
  1  2  1  0  0  0  0
  2  3  1  0  0  0  0
  2 11  1  0  0  0  0
  3  4  1  0  0  0  0
  4  5  1  0  0  0  0
  4  9  1  0  0  0  0
  5  6  1  0  0  0  0
  6  7  1  0  0  0  0
  7  8  1  0  0  0  0
  7 99  1  0  0  0  0
  8  9  2  0  0  0  0
  8 17  1  0  0  0  0
  9 10  1  0  0  0  0
 10 11  1  0  0  0  0
 10 15  2  0  0  0  0
 11 12  1  0  0  0  0
 12 13  1  0  0  0  0
 12 36  1  0  0  0  0
 13 14  1  0  0  0  0
 14 15  1  0  0  0  0
 15 16  1  0  0  0  0
 16 17  2  0  0  0  0
 17 18  1  0  0  0  0
 18 19  2  0  0  0  0
 18 31  1  0  0  0  0
 19 20  1  0  0  0  0
 20 21  1  0  0  0  0
 20 29  2  0  0  0  0
 21 22  1  0  0  0  0
 21 26  1  0  0  0  0
 22 23  1  0  0  0  0
 23 24  1  0  0  0  0
 24 25  1  0  0  0  0
 24 35  1  0  0  0  0
 25 26  1  0  0  0  0
 25 34  1  0  0  0  0
 26 27  1  0  0  0  0
 27 28  1  0  0  0  0
 28 29  1  0  0  0  0
 28 33  1  0  0  0  0
 29 30  1  0  0  0  0
 30 31  2  0  0  0  0
 31 32  1  0  0  0  0
 36 37  1  0  0  0  0
 36 41  1  0  0  0  0
 37 38  1  0  0  0  0
 38 39  2  0  0  0  0
 38 59  1  0  0  0  0
 39 40  1  0  0  0  0
 39 56  1  0  0  0  0
 40 41  1  0  0  0  0
 40 55  1  0  0  0  0
 41 42  1  0  0  0  0
 42 43  1  0  0  0  0
 43 44  2  0  0  0  0
 43 48  1  0  0  0  0
 44 45  1  0  0  0  0
 45 46  2  0  0  0  0
 46 47  1  0  0  0  0
 46 49  1  0  0  0  0
 47 48  2  0  0  0  0
 49 50  2  0  0  0  0
 49 54  1  0  0  0  0
 50 51  1  0  0  0  0
 51 52  2  0  0  0  0
 52 53  1  0  0  0  0
 53 54  2  0  0  0  0
 56 57  2  0  0  0  0
 57 58  1  0  0  0  0
 57 65  1  0  0  0  0
 58 59  2  0  0  0  0
 58 61  1  0  0  0  0
 59 60  1  0  0  0  0
 61 62  1  0  0  0  0
 61 63  2  0  0  0  0
 63 64  1  0  0  0  0
 64 65  2  0  0  0  0
 64 67  1  0  0  0  0
 65 66  1  0  0  0  0
 67 68  2  0  0  0  0
 67 77  1  0  0  0  0
 68 69  1  0  0  0  0
 69 70  2  0  0  0  0
 69 75  1  0  0  0  0
 70 71  1  0  0  0  0
 70 80  1  0  0  0  0
 71 72  1  0  0  0  0
 71 73  2  0  0  0  0
 73 74  1  0  0  0  0
 74 75  2  0  0  0  0
 75 76  1  0  0  0  0
 76 77  2  0  0  0  0
 76 79  1  0  0  0  0
 77 78  1  0  0  0  0
 80 81  2  0  0  0  0
 80 86  1  0  0  0  0
 81 82  1  0  0  0  0
 81 83  1  0  0  0  0
 83 84  2  0  0  0  0
 84 85  1  0  0  0  0
 84 91  1  0  0  0  0
 85 86  2  0  0  0  0
 85 88  1  0  0  0  0
 86 87  1  0  0  0  0
 88 89  2  0  0  0  0
 89 90  1  0  0  0  0
 89 98  1  0  0  0  0
 90 91  2  0  0  0  0
 90 96  1  0  0  0  0
 91 92  1  0  0  0  0
 92 93  2  0  0  0  0
 93 94  1  0  0  0  0
 93 95  1  0  0  0  0
 95 96  2  0  0  0  0
 96 97  1  0  0  0  0
M  CHG  8  75   1  76   1  80   1  81   1  89   1  91   1  93   1  96   1
M  END
$$$$