
 OpenBabel11212020513D

 54 62  0  0  1  0  0  0  0  0999 V2000
    6.5814    4.3336    4.6259 O   0  0  0  0  0  0  0  0  0  0  0  0
    6.0415    4.4904    3.3748 C   0  0  0  0  0  0  0  0  0  0  0  0
    5.0591    3.7137    2.9034 C   0  0  0  0  0  0  0  0  0  0  0  0
    4.5428    2.6615    3.6470 O   0  0  0  0  0  0  0  0  0  0  0  0
    3.1671    2.3945    3.3804 C   0  0  2  0  0  0  0  0  0  0  0  0
    2.6910    1.2737    4.1606 O   0  0  0  0  0  0  0  0  0  0  0  0
    2.7966    1.3064    5.5411 C   0  0  0  0  0  0  0  0  0  0  0  0
    2.9302    0.1550    6.2336 C   0  0  0  0  0  0  0  0  0  0  0  0
    3.0458    0.1113    7.6202 O   0  0  0  0  0  0  0  0  0  0  0  0
    3.1449    1.3048    8.3368 C   0  0  0  0  0  0  0  0  0  0  0  0
    2.9783    2.5027    7.7412 C   0  0  0  0  0  0  0  0  0  0  0  0
    2.6934    2.6284    6.2659 C   0  0  0  0  0  0  0  0  0  0  0  0
    3.1606    3.7934    8.5016 C   0  0  3  0  0  0  0  0  0  0  0  0
    1.9262    4.4848    8.5498 O   0  0  0  0  0  0  0  0  0  0  0  0
    1.9395    5.6796    9.2128 C   0  0  0  0  0  0  0  0  0  0  0  0
    1.0173    6.4723    9.1304 O   0  0  0  0  0  0  0  0  0  0  0  0
    3.0646    5.9298    9.9306 O   0  0  0  0  0  0  0  0  0  0  0  0
    3.7256    4.8661   10.6042 C   0  0  3  0  0  0  0  0  0  0  0  0
    3.5341    3.5602    9.9182 C   0  0  0  0  0  0  0  0  0  0  0  0
    3.6601    2.3278   10.4562 C   0  0  0  0  0  0  0  0  0  0  0  0
    3.4394    1.2043    9.6765 O   0  3  0  0  0  0  0  0  0  0  0  0
    4.0802    2.0523   11.8524 C   0  0  0  0  0  0  0  0  0  0  0  0
    4.1614    0.6934   12.3241 O   0  0  0  0  0  0  0  0  0  0  0  0
    5.3594    1.4644   12.1237 O   0  0  0  0  0  0  0  0  0  0  0  0
    5.1196    5.0911   10.5665 O   0  0  0  0  0  0  0  0  0  0  0  0
    2.9916   -1.1660    5.5619 C   0  0  0  0  0  0  0  0  0  0  0  0
    1.7941   -1.7568    5.3501 N   0  0  0  0  0  0  0  0  0  0  0  0
    1.7612   -2.8934    4.6577 N   0  3  0  0  0  0  0  0  0  0  0  0
    0.5677   -3.4818    4.4458 F   0  0  0  0  0  0  0  0  0  0  0  0
    2.8624   -3.4750    4.1660 C   0  0  0  0  0  0  0  0  0  0  0  0
    4.1168   -2.9153    4.3818 C   0  0  0  0  0  0  0  0  0  0  0  0
    4.2047   -1.7283    5.1247 C   0  0  0  0  0  0  0  0  0  0  0  0
    5.4897   -1.1861    5.3543 C   0  0  0  0  0  0  0  0  0  0  0  0
    6.6324   -1.7787    4.7940 C   0  0  0  0  0  0  0  0  0  0  0  0
    7.9457   -1.1688    5.0062 C   0  0  0  0  0  0  0  0  0  0  0  0
    8.0818   -0.2688    5.8193 O   0  0  0  0  0  0  0  0  0  0  0  0
    9.0901   -1.7049    4.1772 C   0  0  0  0  0  0  0  0  0  0  0  0
   10.2429   -1.4357    4.4758 O   0  0  0  0  0  0  0  0  0  0  0  0
    8.6620   -2.5378    2.9872 C   0  0  1  0  0  0  0  0  0  0  0  0
    7.5804   -3.4415    3.3032 O   0  0  0  0  0  0  0  0  0  0  0  0
    6.5322   -2.9092    3.9987 C   0  0  0  0  0  0  0  0  0  0  0  0
    5.2771   -3.4947    3.8388 C   0  0  0  0  0  0  0  0  0  0  0  0
    5.1531   -4.6034    3.0939 F   0  0  0  0  0  0  0  0  0  0  0  0
    8.4009   -1.6853    1.7609 C   0  0  1  0  0  0  0  0  0  0  0  0
    9.5160   -0.9066    1.2881 O   0  0  0  0  0  0  0  0  0  0  0  0
    7.6002   -2.2935    0.7312 O   0  0  0  0  0  0  0  0  0  0  0  0
    7.0954   -1.2190    1.3379 C   0  0  0  0  0  0  0  0  0  0  0  0
    6.0543   -1.0127    1.9321 O   0  0  0  0  0  0  0  0  0  0  0  0
    2.9409    2.0092    1.9222 C   0  0  0  0  0  0  0  0  0  0  0  0
    2.1625    1.1498    1.5321 O   0  0  0  0  0  0  0  0  0  0  0  0
    3.7820    2.8184    0.9627 C   0  0  0  0  0  0  0  0  0  0  0  0
    3.8834    2.4973   -0.2083 O   0  0  0  0  0  0  0  0  0  0  0  0
    4.5744    3.9760    1.5203 C   0  0  0  0  0  0  0  0  0  0  0  0
    4.7393    5.0130    0.9076 O   0  0  0  0  0  0  0  0  0  0  0  0
  1  2  1  0  0  0  0
  2  3  2  0  0  0  0
  3  4  1  0  0  0  0
  3 53  1  0  0  0  0
  4  5  1  0  0  0  0
  5  6  1  1  0  0  0
  5 49  1  0  0  0  0
  6  7  1  0  0  0  0
  7  8  2  0  0  0  0
  7 12  1  0  0  0  0
  8  9  1  0  0  0  0
  8 26  1  0  0  0  0
  9 10  1  0  0  0  0
 10 11  2  0  0  0  0
 10 21  1  0  0  0  0
 11 12  1  0  0  0  0
 11 13  1  0  0  0  0
 13 14  1  0  0  0  0
 13 19  1  0  0  0  0
 14 15  1  0  0  0  0
 15 16  2  0  0  0  0
 15 17  1  0  0  0  0
 17 18  1  0  0  0  0
 18 19  1  0  0  0  0
 18 25  1  0  0  0  0
 19 20  2  0  0  0  0
 20 21  1  0  0  0  0
 20 22  1  0  0  0  0
 22 23  1  0  0  0  0
 22 24  1  0  0  0  0
 23 24  1  0  0  0  0
 26 27  2  0  0  0  0
 26 32  1  0  0  0  0
 27 28  1  0  0  0  0
 28 29  1  0  0  0  0
 28 30  2  0  0  0  0
 30 31  1  0  0  0  0
 31 32  2  0  0  0  0
 31 42  1  0  0  0  0
 32 33  1  0  0  0  0
 33 34  2  0  0  0  0
 34 35  1  0  0  0  0
 34 41  1  0  0  0  0
 35 36  2  0  0  0  0
 35 37  1  0  0  0  0
 37 38  2  0  0  0  0
 39 37  1  1  0  0  0
 39 40  1  0  0  0  0
 39 44  1  0  0  0  0
 40 41  1  0  0  0  0
 41 42  2  0  0  0  0
 42 43  1  0  0  0  0
 44 45  1  6  0  0  0
 44 46  1  0  0  0  0
 44 47  1  0  0  0  0
 46 47  1  0  0  0  0
 47 48  2  0  0  0  0
 49 50  2  0  0  0  0
 49 51  1  0  0  0  0
 51 52  2  0  0  0  0
 51 53  1  0  0  0  0
 53 54  2  0  0  0  0
M  CHG  2  21   1  28   1
M  END
$$$$