
 OpenBabel09212019193D

 68 77  0  0  1  0  0  0  0  0999 V2000
    2.0579    8.9835    0.3037 O   0  0  0  0  0  0  0  0  0  0  0  0
    0.9373    8.4405    0.9916 C   0  0  0  0  0  0  0  0  0  0  0  0
    1.4071    7.7214    2.2714 C   0  0  2  0  0  0  0  0  0  0  0  0
    2.2998    6.6713    1.8508 O   0  0  0  0  0  0  0  0  0  0  0  0
    2.6946    5.7721    2.9036 C   0  0  2  0  0  0  0  0  0  0  0  0
    3.7575    4.9036    2.4042 O   0  0  0  0  0  0  0  0  0  0  0  0
    5.0770    5.4264    2.4152 C   0  0  0  0  0  0  0  0  0  0  0  0
    6.0841    4.9499    1.6347 C   0  0  0  0  0  0  0  0  0  0  0  0
    7.4119    5.3878    1.7242 O   0  0  0  0  0  0  0  0  0  0  0  0
    7.7673    6.3648    2.6300 C   0  0  0  0  0  0  0  0  0  0  0  0
    6.8468    6.9149    3.5008 C   0  0  0  0  0  0  0  0  0  0  0  0
    5.4295    6.4573    3.4602 C   0  0  3  0  0  0  0  0  0  0  0  0
    5.1332    5.8826    4.7382 O   0  0  0  0  0  0  0  0  0  0  0  0
    7.3002    7.9079    4.3844 C   0  0  0  0  0  0  0  0  0  0  0  0
    6.4563    8.4451    5.3678 N   0  0  0  0  0  0  0  0  0  0  0  0
    6.8508    9.3251    6.3292 C   0  0  0  0  0  0  0  0  0  0  0  0
    6.0879    9.6869    7.2189 O   0  0  0  0  0  0  0  0  0  0  0  0
    8.1360    9.7557    6.2778 N   0  0  0  0  0  0  0  0  0  0  0  0
    9.0176    9.5586    5.1409 C   0  0  1  0  0  0  0  0  0  0  0  0
    8.6113    8.3617    4.3330 C   0  0  0  0  0  0  0  0  0  0  0  0
    9.4466    7.6964    3.4619 C   0  0  0  0  0  0  0  0  0  0  0  0
    9.0773    6.7109    2.6224 N   0  0  0  0  0  0  0  0  0  0  0  0
   10.7726    7.9816    3.4166 O   0  0  0  0  0  0  0  0  0  0  0  0
    9.0115   10.8133    4.2631 C   0  0  0  0  0  0  0  0  0  0  0  0
    5.9681    3.8011    0.7001 C   0  0  0  0  0  0  0  0  0  0  0  0
    6.2563    2.6273    1.3321 N   0  0  0  0  0  0  0  0  0  0  0  0
    6.1927    1.5312    0.5807 C   0  0  0  0  0  0  0  0  0  0  0  0
    6.4989    0.3748    1.2332 O   0  0  0  0  0  0  0  0  0  0  0  0
    5.8324    1.4803   -0.7530 C   0  0  0  0  0  0  0  0  0  0  0  0
    5.5369    2.6755   -1.4377 C   0  0  0  0  0  0  0  0  0  0  0  0
    5.6491    3.8981   -0.6988 C   0  0  0  0  0  0  0  0  0  0  0  0
    5.4413    5.1080   -1.4190 C   0  0  0  0  0  0  0  0  0  0  0  0
    5.7189    6.2978   -0.7831 O   0  0  0  0  0  0  0  0  0  0  0  0
    4.9939    5.1124   -2.7541 C   0  0  0  0  0  0  0  0  0  0  0  0
    4.8360    3.9215   -3.4413 C   0  0  0  0  0  0  0  0  0  0  0  0
    5.1157    2.6994   -2.8100 C   0  0  0  0  0  0  0  0  0  0  0  0
    5.1685    1.5336   -3.6114 N   0  0  0  0  0  0  0  0  0  0  0  0
    4.4076    3.8738   -4.7513 O   0  0  0  0  0  0  0  0  0  0  0  0
    3.9060    5.0271   -5.3212 C   0  0  0  0  0  0  0  0  0  0  0  0
    3.9770    6.2422   -4.7553 C   0  0  0  0  0  0  0  0  0  0  0  0
    4.6534    6.3630   -3.4521 C   0  0  0  0  0  0  0  0  0  0  0  0
    4.9254    7.4282   -2.9100 O   0  0  0  0  0  0  0  0  0  0  0  0
    3.3488    7.4022   -5.4803 C   0  0  0  0  0  0  0  0  0  0  0  0
    3.3794    8.5193   -5.0071 O   0  0  0  0  0  0  0  0  0  0  0  0
    2.7081    7.1483   -6.6904 N   0  0  0  0  0  0  0  0  0  0  0  0
    2.7237    5.9530   -7.1250 C   0  0  0  0  0  0  0  0  0  0  0  0
    3.2949    4.8830   -6.5339 N   0  0  0  0  0  0  0  0  0  0  0  0
    2.1130    5.6719   -8.2794 O   0  0  0  0  0  0  0  0  0  0  0  0
    5.7511    0.2473   -1.3588 O   0  0  0  0  0  0  0  0  0  0  0  0
    1.3958    5.0186    3.3921 C   0  0  2  0  0  0  0  0  0  0  0  0
    0.4656    6.0981    4.0179 C   0  0  2  0  0  0  0  0  0  0  0  0
    0.1695    7.2187    3.0295 C   0  0  1  0  0  0  0  0  0  0  0  0
   -0.5155    8.3304    3.6351 O   0  0  0  0  0  0  0  0  0  0  0  0
   -0.3749    8.4994    5.0064 C   0  0  0  0  0  0  0  0  0  0  0  0
    0.3687    7.6733    5.7635 C   0  0  0  0  0  0  0  0  0  0  0  0
    1.0806    6.6166    5.2132 O   0  0  0  0  0  0  0  0  0  0  0  0
    0.4270    7.7831    7.2514 C   0  0  0  0  0  0  0  0  0  0  0  0
    0.7839    6.8520    7.9575 O   0  0  0  0  0  0  0  0  0  0  0  0
   -0.0406    9.0775    7.8631 C   0  0  0  0  0  0  0  0  0  0  0  0
    0.3373    9.4155    8.9719 O   0  0  0  0  0  0  0  0  0  0  0  0
   -0.9638    9.9448    7.0605 C   0  0  0  0  0  0  0  0  0  0  0  0
   -1.5780   10.8550    7.5926 O   0  0  0  0  0  0  0  0  0  0  0  0
   -1.1312    9.6565    5.5864 C   0  0  0  0  0  0  0  0  0  0  0  0
   -1.8526   10.3637    4.8981 O   0  0  0  0  0  0  0  0  0  0  0  0
    1.5910    3.9007    4.3341 N   0  0  0  0  0  0  0  0  0  0  0  0
    0.5430    3.1491    4.8426 C   0  0  0  0  0  0  0  0  0  0  0  0
   -0.6352    3.3248    4.5459 O   0  0  0  0  0  0  0  0  0  0  0  0
    0.9673    2.0867    5.8260 C   0  0  0  0  0  0  0  0  0  0  0  0
  1  2  1  0  0  0  0
  3  4  1  0  0  0  0
  3 52  1  0  0  0  0
  3  2  1  6  0  0  0
  4  5  1  0  0  0  0
  5 50  1  0  0  0  0
  5  6  1  6  0  0  0
  6  7  1  0  0  0  0
  7  8  2  0  0  0  0
  7 12  1  0  0  0  0
  8  9  1  0  0  0  0
  8 25  1  0  0  0  0
  9 10  1  0  0  0  0
 10 11  2  0  0  0  0
 10 22  1  0  0  0  0
 11 12  1  0  0  0  0
 11 14  1  0  0  0  0
 12 13  1  0  0  0  0
 14 15  1  0  0  0  0
 14 20  2  0  0  0  0
 15 16  1  0  0  0  0
 16 17  2  0  0  0  0
 16 18  1  0  0  0  0
 18 19  1  0  0  0  0
 19 20  1  0  0  0  0
 19 24  1  6  0  0  0
 20 21  1  0  0  0  0
 21 22  2  0  0  0  0
 21 23  1  0  0  0  0
 25 26  2  0  0  0  0
 25 31  1  0  0  0  0
 26 27  1  0  0  0  0
 27 28  1  0  0  0  0
 27 29  2  0  0  0  0
 29 30  1  0  0  0  0
 29 49  1  0  0  0  0
 30 31  2  0  0  0  0
 30 36  1  0  0  0  0
 31 32  1  0  0  0  0
 32 33  1  0  0  0  0
 32 34  2  0  0  0  0
 34 35  1  0  0  0  0
 34 41  1  0  0  0  0
 35 36  2  0  0  0  0
 35 38  1  0  0  0  0
 36 37  1  0  0  0  0
 38 39  1  0  0  0  0
 39 40  2  0  0  0  0
 39 47  1  0  0  0  0
 40 41  1  0  0  0  0
 40 43  1  0  0  0  0
 41 42  2  0  0  0  0
 43 44  2  0  0  0  0
 43 45  1  0  0  0  0
 45 46  2  0  0  0  0
 46 47  1  0  0  0  0
 46 48  1  0  0  0  0
 50 51  1  0  0  0  0
 50 65  1  1  0  0  0
 51 52  1  0  0  0  0
 51 56  1  1  0  0  0
 52 53  1  1  0  0  0
 53 54  1  0  0  0  0
 54 55  2  0  0  0  0
 54 63  1  0  0  0  0
 55 56  1  0  0  0  0
 55 57  1  0  0  0  0
 57 59  1  0  0  0  0
 57 58  2  0  0  0  0
 59 61  1  0  0  0  0
 59 60  2  0  0  0  0
 61 63  1  0  0  0  0
 61 62  2  0  0  0  0
 63 64  2  0  0  0  0
 65 66  1  0  0  0  0
 66 67  2  0  0  0  0
 66 68  1  0  0  0  0
M  END
$$$$