
 OpenBabel11212020573D

 54 62  0  0  1  0  0  0  0  0999 V2000
   -1.1686   -2.8842   -3.8701 O   0  0  0  0  0  0  0  0  0  0  0  0
   -0.7006   -1.7728   -3.2132 C   0  0  0  0  0  0  0  0  0  0  0  0
    0.2411   -1.8384   -2.2645 C   0  0  0  0  0  0  0  0  0  0  0  0
    0.7586   -3.0691   -1.8927 O   0  0  0  0  0  0  0  0  0  0  0  0
    2.0527   -3.0442   -1.3029 C   0  0  2  0  0  0  0  0  0  0  0  0
    2.4437   -4.3650   -0.8950 O   0  0  0  0  0  0  0  0  0  0  0  0
    2.5393   -5.3426   -1.8745 C   0  0  0  0  0  0  0  0  0  0  0  0
    2.3000   -6.6431   -1.5886 C   0  0  0  0  0  0  0  0  0  0  0  0
    2.4275   -7.6444   -2.5576 O   0  0  0  0  0  0  0  0  0  0  0  0
    2.8781   -7.3391   -3.8385 C   0  0  0  0  0  0  0  0  0  0  0  0
    3.2021   -6.0799   -4.1800 C   0  0  0  0  0  0  0  0  0  0  0  0
    2.9930   -4.9233   -3.2498 C   0  0  0  0  0  0  0  0  0  0  0  0
    3.8154   -5.7504   -5.5117 C   0  0  3  0  0  0  0  0  0  0  0  0
    5.1388   -5.3209   -5.2400 O   0  0  0  0  0  0  0  0  0  0  0  0
    5.9851   -5.1000   -6.2798 C   0  0  0  0  0  0  0  0  0  0  0  0
    7.0427   -4.5141   -6.1171 O   0  0  0  0  0  0  0  0  0  0  0  0
    5.5942   -5.5796   -7.4839 O   0  0  0  0  0  0  0  0  0  0  0  0
    4.5757   -6.5572   -7.6581 C   0  0  3  0  0  0  0  0  0  0  0  0
    3.9303   -6.9439   -6.3786 C   0  0  0  0  0  0  0  0  0  0  0  0
    3.5202   -8.1746   -6.0014 C   0  0  0  0  0  0  0  0  0  0  0  0
    2.9971   -8.3781   -4.7338 O   0  3  0  0  0  0  0  0  0  0  0  0
    3.6235   -9.3802   -6.8542 C   0  0  0  0  0  0  0  0  0  0  0  0
    4.7818  -10.2209   -6.8002 O   0  0  0  0  0  0  0  0  0  0  0  0
    3.5282  -10.6911   -6.2687 O   0  0  0  0  0  0  0  0  0  0  0  0
    3.5378   -6.0083   -8.4434 O   0  0  0  0  0  0  0  0  0  0  0  0
    1.9072   -7.1209   -0.2223 C   0  0  0  0  0  0  0  0  0  0  0  0
    2.4588   -6.4263    0.7969 N   0  0  0  0  0  0  0  0  0  0  0  0
    2.1295   -6.7129    2.0449 N   0  3  0  0  0  0  0  0  0  0  0  0
    2.6646   -5.9718    3.0345 F   0  0  0  0  0  0  0  0  0  0  0  0
    1.2870   -7.7030    2.3549 C   0  0  0  0  0  0  0  0  0  0  0  0
    0.7132   -8.4834    1.3560 C   0  0  0  0  0  0  0  0  0  0  0  0
    1.0269   -8.2017    0.0151 C   0  0  0  0  0  0  0  0  0  0  0  0
    0.4067   -9.0096   -0.9674 C   0  0  0  0  0  0  0  0  0  0  0  0
   -0.4862  -10.0363   -0.6289 C   0  0  0  0  0  0  0  0  0  0  0  0
   -1.0893  -10.8352   -1.6957 C   0  0  0  0  0  0  0  0  0  0  0  0
   -0.7234  -10.6928   -2.8534 O   0  0  0  0  0  0  0  0  0  0  0  0
   -2.1370  -11.8378   -1.2770 C   0  0  0  0  0  0  0  0  0  0  0  0
   -2.4253  -12.7647   -2.0166 O   0  0  0  0  0  0  0  0  0  0  0  0
   -2.7489  -11.5650    0.0815 C   0  0  1  0  0  0  0  0  0  0  0  0
   -1.7793  -11.1723    1.0765 O   0  0  0  0  0  0  0  0  0  0  0  0
   -0.8244  -10.2767    0.6893 C   0  0  0  0  0  0  0  0  0  0  0  0
   -0.1962   -9.5125    1.6734 C   0  0  0  0  0  0  0  0  0  0  0  0
   -0.4974   -9.7235    2.9633 F   0  0  0  0  0  0  0  0  0  0  0  0
   -3.9250  -10.6202   -0.0180 C   0  0  1  0  0  0  0  0  0  0  0  0
   -5.0267  -11.0685   -0.8270 O   0  0  0  0  0  0  0  0  0  0  0  0
   -4.2938   -9.9434    1.1894 O   0  0  0  0  0  0  0  0  0  0  0  0
   -3.8425   -9.1852    0.1857 C   0  0  0  0  0  0  0  0  0  0  0  0
   -2.9048   -8.4026    0.1149 O   0  0  0  0  0  0  0  0  0  0  0  0
    2.0199   -2.1500   -0.0832 C   0  0  0  0  0  0  0  0  0  0  0  0
    2.2220   -2.4900    1.0722 O   0  0  0  0  0  0  0  0  0  0  0  0
    1.6523   -0.7446   -0.4704 C   0  0  0  0  0  0  0  0  0  0  0  0
    2.2220    0.1966    0.0513 O   0  0  0  0  0  0  0  0  0  0  0  0
    0.6582   -0.5615   -1.6036 C   0  0  0  0  0  0  0  0  0  0  0  0
    0.2652    0.5399   -1.9444 O   0  0  0  0  0  0  0  0  0  0  0  0
  1  2  1  0  0  0  0
  2  3  2  0  0  0  0
  3  4  1  0  0  0  0
  3 53  1  0  0  0  0
  4  5  1  0  0  0  0
  5  6  1  1  0  0  0
  5 49  1  0  0  0  0
  6  7  1  0  0  0  0
  7  8  2  0  0  0  0
  7 12  1  0  0  0  0
  8  9  1  0  0  0  0
  8 26  1  0  0  0  0
  9 10  1  0  0  0  0
 10 11  2  0  0  0  0
 10 21  1  0  0  0  0
 11 12  1  0  0  0  0
 11 13  1  0  0  0  0
 13 14  1  0  0  0  0
 13 19  1  0  0  0  0
 14 15  1  0  0  0  0
 15 16  2  0  0  0  0
 15 17  1  0  0  0  0
 17 18  1  0  0  0  0
 18 19  1  0  0  0  0
 18 25  1  0  0  0  0
 19 20  2  0  0  0  0
 20 21  1  0  0  0  0
 20 22  1  0  0  0  0
 22 23  1  0  0  0  0
 22 24  1  0  0  0  0
 23 24  1  0  0  0  0
 26 27  2  0  0  0  0
 26 32  1  0  0  0  0
 27 28  1  0  0  0  0
 28 29  1  0  0  0  0
 28 30  2  0  0  0  0
 30 31  1  0  0  0  0
 31 32  2  0  0  0  0
 31 42  1  0  0  0  0
 32 33  1  0  0  0  0
 33 34  2  0  0  0  0
 34 35  1  0  0  0  0
 34 41  1  0  0  0  0
 35 36  2  0  0  0  0
 35 37  1  0  0  0  0
 37 38  2  0  0  0  0
 39 37  1  6  0  0  0
 39 40  1  0  0  0  0
 39 44  1  0  0  0  0
 40 41  1  0  0  0  0
 41 42  2  0  0  0  0
 42 43  1  0  0  0  0
 44 45  1  6  0  0  0
 44 46  1  0  0  0  0
 44 47  1  0  0  0  0
 46 47  1  0  0  0  0
 47 48  2  0  0  0  0
 49 50  2  0  0  0  0
 49 51  1  0  0  0  0
 51 52  2  0  0  0  0
 51 53  1  0  0  0  0
 53 54  2  0  0  0  0
M  CHG  2  21   1  28   1
M  END
$$$$