
 OpenBabel10192021053D

 51 59  0  0  1  0  0  0  0  0999 V2000
    6.1409    5.1014    2.5406 O   0  0  0  0  0  0  0  0  0  0  0  0
    6.3373    3.8956    1.9167 C   0  0  0  0  0  0  0  0  0  0  0  0
    5.3927    3.3074    1.1736 C   0  0  0  0  0  0  0  0  0  0  0  0
    4.1532    3.8930    1.0181 O   0  0  0  0  0  0  0  0  0  0  0  0
    3.6475    3.7523   -0.3068 C   0  0  2  0  0  0  0  0  0  0  0  0
    2.4796    4.5490   -0.5076 O   0  0  0  0  0  0  0  0  0  0  0  0
    2.6022    5.9345   -0.4217 C   0  0  0  0  0  0  0  0  0  0  0  0
    1.5257    6.7281   -0.6151 C   0  0  0  0  0  0  0  0  0  0  0  0
    1.5602    8.1160   -0.5279 O   0  0  0  0  0  0  0  0  0  0  0  0
    2.7731    8.7451   -0.2889 C   0  0  0  0  0  0  0  0  0  0  0  0
    3.9021    8.0450   -0.1072 C   0  0  0  0  0  0  0  0  0  0  0  0
    3.9426    6.5586   -0.1145 C   0  0  0  0  0  0  0  0  0  0  0  0
    5.1680    8.7895    0.1287 C   0  0  0  0  0  0  0  0  0  0  0  0
    6.2865    8.1580    0.2749 N   0  0  0  0  0  0  0  0  0  0  0  0
    7.4424    8.8768    0.4978 C   0  0  0  0  0  0  0  0  0  0  0  0
    8.4861    8.2535    0.6472 O   0  0  0  0  0  0  0  0  0  0  0  0
    7.4813   10.2557    0.5591 N   0  0  0  0  0  0  0  0  0  0  0  0
    6.3809   10.9113    0.4157 C   0  0  0  0  0  0  0  0  0  0  0  0
    5.0892   10.2656    0.1784 C   0  0  0  0  0  0  0  0  0  0  0  0
    3.9022   10.8803   -0.0027 C   0  0  0  0  0  0  0  0  0  0  0  0
    2.7699   10.1158   -0.2479 N   0  0  0  0  0  0  0  0  0  0  0  0
    3.6897   12.3438    0.0168 C   0  0  0  0  0  0  0  0  0  0  0  0
    2.7730   12.9521    0.9428 O   0  0  0  0  0  0  0  0  0  0  0  0
    4.1876   13.1875    1.0666 O   0  0  0  0  0  0  0  0  0  0  0  0
    0.2072    6.1791   -0.9684 C   0  0  0  0  0  0  0  0  0  0  0  0
   -0.0043    6.0736   -2.2989 N   0  0  0  0  0  0  0  0  0  0  0  0
   -1.1459    5.4844   -2.6597 C   0  0  0  0  0  0  0  0  0  0  0  0
   -2.0799    4.9994   -1.8315 N   0  0  0  0  0  0  0  0  0  0  0  0
   -1.8563    5.1248   -0.5203 C   0  0  0  0  0  0  0  0  0  0  0  0
   -0.7133    5.7486   -0.0004 C   0  0  0  0  0  0  0  0  0  0  0  0
   -0.5721    5.8947    1.4030 C   0  0  0  0  0  0  0  0  0  0  0  0
   -1.5448    5.3806    2.2622 C   0  0  0  0  0  0  0  0  0  0  0  0
   -2.6337    4.6896    1.7468 C   0  0  0  0  0  0  0  0  0  0  0  0
   -2.7924    4.5991    0.3631 C   0  0  0  0  0  0  0  0  0  0  0  0
   -3.5906    4.0738    2.5065 O   0  0  0  0  0  0  0  0  0  0  0  0
   -3.2273    3.7895    3.8647 C   0  0  2  0  0  0  0  0  0  0  0  0
   -2.5151    4.9274    4.5538 C   0  0  0  0  0  0  0  0  0  0  0  0
   -2.7509    5.3042    5.6934 O   0  0  0  0  0  0  0  0  0  0  0  0
   -1.4400    5.5787    3.7139 C   0  0  0  0  0  0  0  0  0  0  0  0
   -0.5601    6.2580    4.2176 O   0  0  0  0  0  0  0  0  0  0  0  0
   -2.4383    2.5209    3.9561 C   0  0  1  0  0  0  0  0  0  0  0  0
   -1.1596    2.4961    3.2738 O   0  0  0  0  0  0  0  0  0  0  0  0
   -2.4572    1.9070    5.2479 O   0  0  0  0  0  0  0  0  0  0  0  0
   -3.0266    1.2103    4.2422 C   0  0  0  0  0  0  0  0  0  0  0  0
   -2.7533    0.1238    3.8032 O   0  0  0  0  0  0  0  0  0  0  0  0
    3.3478    2.2635   -0.4687 C   0  0  0  0  0  0  0  0  0  0  0  0
    2.2511    1.8255   -0.8214 O   0  0  0  0  0  0  0  0  0  0  0  0
    4.5444    1.3605   -0.2601 C   0  0  3  0  0  0  0  0  0  0  0  0
    5.6757    1.9897    0.5259 C   0  0  0  0  0  0  0  0  0  0  0  0
    6.7787    1.4541    0.6282 O   0  0  0  0  0  0  0  0  0  0  0  0
    4.1779    0.1637    0.2905 F   0  0  0  0  0  0  0  0  0  0  0  0
  1  2  1  0  0  0  0
  2  3  2  0  0  0  0
  3  4  1  0  0  0  0
  3 49  1  0  0  0  0
  4  5  1  0  0  0  0
  5  6  1  1  0  0  0
  5 46  1  0  0  0  0
  6  7  1  0  0  0  0
  7  8  2  0  0  0  0
  7 12  1  0  0  0  0
  8  9  1  0  0  0  0
  8 25  1  0  0  0  0
  9 10  1  0  0  0  0
 10 11  2  0  0  0  0
 10 21  1  0  0  0  0
 11 12  1  0  0  0  0
 11 13  1  0  0  0  0
 13 14  2  0  0  0  0
 13 19  1  0  0  0  0
 14 15  1  0  0  0  0
 15 16  2  0  0  0  0
 15 17  1  0  0  0  0
 17 18  2  0  0  0  0
 18 19  1  0  0  0  0
 19 20  2  0  0  0  0
 20 21  1  0  0  0  0
 20 22  1  0  0  0  0
 22 23  1  0  0  0  0
 22 24  1  0  0  0  0
 23 24  1  0  0  0  0
 25 26  2  0  0  0  0
 25 30  1  0  0  0  0
 26 27  1  0  0  0  0
 27 28  2  0  0  0  0
 28 29  1  0  0  0  0
 29 30  2  0  0  0  0
 29 34  1  0  0  0  0
 30 31  1  0  0  0  0
 31 32  2  0  0  0  0
 32 33  1  0  0  0  0
 32 39  1  0  0  0  0
 33 34  2  0  0  0  0
 33 35  1  0  0  0  0
 36 35  1  6  0  0  0
 36 37  1  0  0  0  0
 36 41  1  0  0  0  0
 37 38  2  0  0  0  0
 37 39  1  0  0  0  0
 39 40  2  0  0  0  0
 41 42  1  6  0  0  0
 41 43  1  0  0  0  0
 41 44  1  0  0  0  0
 43 44  1  0  0  0  0
 44 45  2  0  0  0  0
 46 47  2  0  0  0  0
 46 48  1  0  0  0  0
 48 49  1  0  0  0  0
 48 51  1  0  0  0  0
 49 50  2  0  0  0  0
M  END
$$$$