
 OpenBabel11182016323D

 52 60  0  0  1  0  0  0  0  0999 V2000
    2.3989    2.9496   -4.7251 O   0  0  0  0  0  0  0  0  0  0  0  0
    2.5190    2.6367   -3.3948 C   0  0  0  0  0  0  0  0  0  0  0  0
    2.1478    1.4550   -2.8871 C   0  0  0  0  0  0  0  0  0  0  0  0
    1.5635    0.4794   -3.6669 O   0  0  0  0  0  0  0  0  0  0  0  0
    2.1506   -0.8142   -3.4797 C   0  0  2  0  0  0  0  0  0  0  0  0
    1.6789   -1.7549   -4.4608 O   0  0  0  0  0  0  0  0  0  0  0  0
    1.9814   -1.5222   -5.8012 C   0  0  0  0  0  0  0  0  0  0  0  0
    2.1439   -2.5338   -6.6909 C   0  0  0  0  0  0  0  0  0  0  0  0
    2.3842   -2.2908   -8.0481 O   0  0  0  0  0  0  0  0  0  0  0  0
    2.4762   -0.9967   -8.5245 C   0  0  0  0  0  0  0  0  0  0  0  0
    2.3504    0.0626   -7.7163 C   0  0  0  0  0  0  0  0  0  0  0  0
    2.0203   -0.0906   -6.2762 C   0  0  0  0  0  0  0  0  0  0  0  0
    2.5327    1.4638   -8.2333 C   0  0  3  0  0  0  0  0  0  0  0  0
    3.6271    2.0341   -7.5170 O   0  0  0  0  0  0  0  0  0  0  0  0
    4.2180    3.1780   -7.9300 C   0  0  0  0  0  0  0  0  0  0  0  0
    4.9968    3.7836   -7.2041 O   0  0  0  0  0  0  0  0  0  0  0  0
    3.9282    3.6183   -9.1778 O   0  0  0  0  0  0  0  0  0  0  0  0
    3.0639    2.9376  -10.0797 C   0  0  3  0  0  0  0  0  0  0  0  0
    2.8404    1.5336   -9.6852 C   0  0  0  0  0  0  0  0  0  0  0  0
    2.9045    0.4262  -10.4589 C   0  0  0  0  0  0  0  0  0  0  0  0
    2.7115   -0.8141   -9.8637 N   0  0  0  0  0  0  0  0  0  0  0  0
    3.1683    0.4278  -11.9155 C   0  0  0  0  0  0  0  0  0  0  0  0
    4.5039    0.3899  -12.4397 O   0  0  0  0  0  0  0  0  0  0  0  0
    3.6312   -0.7444  -12.6090 O   0  0  0  0  0  0  0  0  0  0  0  0
    1.8062    3.5922  -10.0879 O   0  0  0  0  0  0  0  0  0  0  0  0
    2.1473   -3.9824   -6.3305 C   0  0  0  0  0  0  0  0  0  0  0  0
    2.6193   -4.2488   -5.0958 N   0  0  0  0  0  0  0  0  0  0  0  0
    2.7053   -5.4789   -4.6874 N   0  0  0  0  0  0  0  0  0  0  0  0
    2.3822   -6.4902   -5.4536 N   0  0  0  0  0  0  0  0  0  0  0  0
    1.9264   -6.3027   -6.6837 C   0  0  0  0  0  0  0  0  0  0  0  0
    1.7710   -5.0199   -7.1967 C   0  0  0  0  0  0  0  0  0  0  0  0
    1.2529   -4.9029   -8.5144 C   0  0  0  0  0  0  0  0  0  0  0  0
    0.9388   -6.0415   -9.2455 C   0  0  0  0  0  0  0  0  0  0  0  0
    1.1292   -7.2665   -8.6553 C   0  0  0  0  0  0  0  0  0  0  0  0
    1.6222   -7.3930   -7.4095 N   0  0  0  0  0  0  0  0  0  0  0  0
    0.8496   -8.4605   -9.2595 O   0  0  0  0  0  0  0  0  0  0  0  0
   -0.0872   -8.4214  -10.3394 C   0  0  2  0  0  0  0  0  0  0  0  0
    0.1136   -7.2662  -11.2906 C   0  0  0  0  0  0  0  0  0  0  0  0
    0.0304   -7.3398  -12.5074 O   0  0  0  0  0  0  0  0  0  0  0  0
    0.4113   -5.9550  -10.6048 C   0  0  0  0  0  0  0  0  0  0  0  0
    0.2297   -4.8836  -11.1594 O   0  0  0  0  0  0  0  0  0  0  0  0
   -1.4916   -8.4596   -9.8263 C   0  0  1  0  0  0  0  0  0  0  0  0
   -1.8937   -7.3723   -8.9578 O   0  0  0  0  0  0  0  0  0  0  0  0
   -2.4641   -8.8672  -10.7900 O   0  0  0  0  0  0  0  0  0  0  0  0
   -2.2922   -9.6807   -9.7279 C   0  0  0  0  0  0  0  0  0  0  0  0
   -3.0844  -10.0227   -8.8825 O   0  0  0  0  0  0  0  0  0  0  0  0
    1.7770   -1.2861   -2.0751 C   0  0  0  0  0  0  0  0  0  0  0  0
    1.4541   -2.4212   -1.7556 O   0  0  0  0  0  0  0  0  0  0  0  0
    1.8760   -0.1912   -1.0272 C   0  0  0  0  0  0  0  0  0  0  0  0
    1.5877   -0.4146    0.1388 O   0  0  0  0  0  0  0  0  0  0  0  0
    2.3246    1.1982   -1.4372 C   0  0  0  0  0  0  0  0  0  0  0  0
    2.8050    1.9934   -0.6488 O   0  0  0  0  0  0  0  0  0  0  0  0
  1  2  1  0  0  0  0
  2  3  2  0  0  0  0
  3  4  1  0  0  0  0
  3 51  1  0  0  0  0
  4  5  1  0  0  0  0
  5  6  1  6  0  0  0
  5 47  1  0  0  0  0
  6  7  1  0  0  0  0
  7  8  2  0  0  0  0
  7 12  1  0  0  0  0
  8  9  1  0  0  0  0
  8 26  1  0  0  0  0
  9 10  1  0  0  0  0
 10 11  2  0  0  0  0
 10 21  1  0  0  0  0
 11 12  1  0  0  0  0
 11 13  1  0  0  0  0
 13 14  1  0  0  0  0
 13 19  1  0  0  0  0
 14 15  1  0  0  0  0
 15 16  2  0  0  0  0
 15 17  1  0  0  0  0
 17 18  1  0  0  0  0
 18 19  1  0  0  0  0
 18 25  1  0  0  0  0
 19 20  2  0  0  0  0
 20 21  1  0  0  0  0
 20 22  1  0  0  0  0
 22 23  1  0  0  0  0
 22 24  1  0  0  0  0
 23 24  1  0  0  0  0
 26 27  2  0  0  0  0
 26 31  1  0  0  0  0
 27 28  1  0  0  0  0
 28 29  2  0  0  0  0
 29 30  1  0  0  0  0
 30 31  2  0  0  0  0
 30 35  1  0  0  0  0
 31 32  1  0  0  0  0
 32 33  2  0  0  0  0
 33 34  1  0  0  0  0
 33 40  1  0  0  0  0
 34 35  2  0  0  0  0
 34 36  1  0  0  0  0
 37 36  1  1  0  0  0
 37 38  1  0  0  0  0
 37 42  1  0  0  0  0
 38 39  2  0  0  0  0
 38 40  1  0  0  0  0
 40 41  2  0  0  0  0
 42 43  1  1  0  0  0
 42 44  1  0  0  0  0
 42 45  1  0  0  0  0
 44 45  1  0  0  0  0
 45 46  2  0  0  0  0
 47 48  2  0  0  0  0
 47 49  1  0  0  0  0
 49 50  2  0  0  0  0
 49 51  1  0  0  0  0
 51 52  2  0  0  0  0
M  END
$$$$