
 OpenBabel09212009243D

 48 55  0  0  1  0  0  0  0  0999 V2000
   -3.3587   -2.6969    0.6964 O   0  0  0  0  0  0  0  0  0  0  0  0
   -3.4525   -2.1603   -0.6234 C   0  0  0  0  0  0  0  0  0  0  0  0
   -2.0675   -1.6956   -1.0774 C   0  0  2  0  0  0  0  0  0  0  0  0
   -1.1895   -2.8197   -1.1252 O   0  0  0  0  0  0  0  0  0  0  0  0
    0.1887   -2.4770   -0.9724 C   0  0  2  0  0  0  0  0  0  0  0  0
    1.0265   -3.6275   -1.1777 O   0  0  0  0  0  0  0  0  0  0  0  0
    0.9560   -4.2639   -2.4125 C   0  0  0  0  0  0  0  0  0  0  0  0
    1.2051   -5.5834   -2.5372 C   0  0  0  0  0  0  0  0  0  0  0  0
    1.1554   -6.2738   -3.7411 O   0  0  0  0  0  0  0  0  0  0  0  0
    0.9446   -5.5792   -4.9106 C   0  0  0  0  0  0  0  0  0  0  0  0
    0.7665   -4.2066   -4.9267 C   0  0  0  0  0  0  0  0  0  0  0  0
    0.7085   -3.4388   -3.6430 C   0  0  0  0  0  0  0  0  0  0  0  0
    0.6044   -3.5992   -6.1764 C   0  0  0  0  0  0  0  0  0  0  0  0
    0.4552   -2.2097   -6.2776 N   0  0  0  0  0  0  0  0  0  0  0  0
    0.1865   -1.5405   -7.4272 C   0  0  0  0  0  0  0  0  0  0  0  0
    0.0354   -0.3239   -7.4348 O   0  0  0  0  0  0  0  0  0  0  0  0
    0.0583   -2.2800   -8.5533 N   0  0  0  0  0  0  0  0  0  0  0  0
    0.4646   -3.6580   -8.6622 C   0  0  0  0  0  0  0  0  0  0  0  0
    0.5905   -4.3562   -7.3485 C   0  0  0  0  0  0  0  0  0  0  0  0
    0.7652   -5.7248   -7.2081 C   0  0  0  0  0  0  0  0  0  0  0  0
    0.9395   -6.3406   -6.0250 N   0  0  0  0  0  0  0  0  0  0  0  0
    0.7918   -6.5844   -8.2653 O   0  0  0  0  0  0  0  0  0  0  0  0
    1.6659   -6.4296   -1.4210 C   0  0  0  0  0  0  0  0  0  0  0  0
    3.0232   -6.4982   -1.3378 N   0  0  0  0  0  0  0  0  0  0  0  0
    3.5545   -7.3123   -0.4091 C   0  0  0  0  0  0  0  0  0  0  0  0
    2.8004   -8.0787    0.4568 C   0  0  0  0  0  0  0  0  0  0  0  0
    1.4075   -8.0028    0.3859 C   0  0  0  0  0  0  0  0  0  0  0  0
    0.7972   -7.1563   -0.5719 C   0  0  0  0  0  0  0  0  0  0  0  0
   -0.6184   -7.1116   -0.6097 C   0  0  0  0  0  0  0  0  0  0  0  0
   -1.3850   -7.8636    0.2925 C   0  0  0  0  0  0  0  0  0  0  0  0
   -0.7703   -8.6731    1.2428 C   0  0  0  0  0  0  0  0  0  0  0  0
    0.6197   -8.7619    1.2672 C   0  0  0  0  0  0  0  0  0  0  0  0
   -1.4244   -9.3983    2.2021 O   0  0  0  0  0  0  0  0  0  0  0  0
   -2.7870   -9.0292    2.4591 C   0  0  2  0  0  0  0  0  0  0  0  0
   -3.5788   -8.7181    1.2096 C   0  0  0  0  0  0  0  0  0  0  0  0
   -4.6862   -9.1603    0.9500 O   0  0  0  0  0  0  0  0  0  0  0  0
   -2.8533   -7.8047    0.2500 C   0  0  0  0  0  0  0  0  0  0  0  0
   -3.4618   -7.0825   -0.5204 O   0  0  0  0  0  0  0  0  0  0  0  0
   -2.8442   -7.8899    3.4499 C   0  0  1  0  0  0  0  0  0  0  0  0
   -2.1713   -6.6779    3.0757 O   0  0  0  0  0  0  0  0  0  0  0  0
   -4.1274   -7.7118    4.0577 O   0  0  0  0  0  0  0  0  0  0  0  0
   -3.0606   -8.1064    4.9292 C   0  0  0  0  0  0  0  0  0  0  0  0
    0.3654   -1.9244    0.3976 C   0  0  0  0  0  0  0  0  0  0  0  0
    1.6724   -2.3651    1.4048 Cl  0  3  0  0  0  0  0  0  0  0  0  0
   -0.5499   -0.8487    0.8098 C   0  0  0  0  0  0  0  0  0  0  0  0
   -0.4111   -0.1841    1.8219 O   0  0  0  0  0  0  0  0  0  0  0  0
   -1.6602   -0.5367   -0.1801 C   0  0  0  0  0  0  0  0  0  0  0  0
   -2.1255    0.5874   -0.2715 O   0  0  0  0  0  0  0  0  0  0  0  0
  1  2  1  0  0  0  0
  3  4  1  0  0  0  0
  3 47  1  0  0  0  0
  3  2  1  1  0  0  0
  4  5  1  0  0  0  0
  5  6  1  1  0  0  0
  5 43  1  0  0  0  0
  6  7  1  0  0  0  0
  7  8  2  0  0  0  0
  7 12  1  0  0  0  0
  8  9  1  0  0  0  0
  8 23  1  0  0  0  0
  9 10  1  0  0  0  0
 10 11  2  0  0  0  0
 10 21  1  0  0  0  0
 11 12  1  0  0  0  0
 11 13  1  0  0  0  0
 13 14  1  0  0  0  0
 13 19  2  0  0  0  0
 14 15  1  0  0  0  0
 15 16  2  0  0  0  0
 15 17  1  0  0  0  0
 17 18  1  0  0  0  0
 18 19  1  0  0  0  0
 19 20  1  0  0  0  0
 20 21  2  0  0  0  0
 20 22  1  0  0  0  0
 23 24  2  0  0  0  0
 23 28  1  0  0  0  0
 24 25  1  0  0  0  0
 25 26  2  0  0  0  0
 26 27  1  0  0  0  0
 27 28  2  0  0  0  0
 27 32  1  0  0  0  0
 28 29  1  0  0  0  0
 29 30  2  0  0  0  0
 30 31  1  0  0  0  0
 30 37  1  0  0  0  0
 31 32  2  0  0  0  0
 31 33  1  0  0  0  0
 34 33  1  6  0  0  0
 34 35  1  0  0  0  0
 34 39  1  0  0  0  0
 35 36  2  0  0  0  0
 35 37  1  0  0  0  0
 37 38  2  0  0  0  0
 39 40  1  6  0  0  0
 39 41  1  0  0  0  0
 39 42  1  0  0  0  0
 41 42  1  0  0  0  0
 43 44  2  0  0  0  0
 43 45  1  0  0  0  0
 45 46  2  0  0  0  0
 45 47  1  0  0  0  0
 47 48  2  0  0  0  0
M  CHG  1  44   1
M  END
$$$$