
 OpenBabel11212020243D

 54 62  0  0  1  0  0  0  0  0999 V2000
    3.4583    0.1821    9.9662 O   0  0  0  0  0  0  0  0  0  0  0  0
    3.1449    1.2752    9.1964 C   0  0  0  0  0  0  0  0  0  0  0  0
    3.2628    1.3019    7.8610 C   0  0  0  0  0  0  0  0  0  0  0  0
    3.7900    0.2441    7.1475 O   0  0  0  0  0  0  0  0  0  0  0  0
    3.0452   -0.0663    5.9587 C   0  0  2  0  0  0  0  0  0  0  0  0
    3.4212   -1.3396    5.3964 O   0  0  0  0  0  0  0  0  0  0  0  0
    3.1337   -2.4637    6.1648 C   0  0  0  0  0  0  0  0  0  0  0  0
    2.9119   -3.6794    5.6143 C   0  0  0  0  0  0  0  0  0  0  0  0
    2.7389   -4.8325    6.3971 O   0  0  0  0  0  0  0  0  0  0  0  0
    3.0385   -4.7808    7.7634 C   0  0  0  0  0  0  0  0  0  0  0  0
    3.2468   -3.6114    8.3882 C   0  0  0  0  0  0  0  0  0  0  0  0
    3.1645   -2.3187    7.6624 C   0  0  0  0  0  0  0  0  0  0  0  0
    3.6775   -3.5104    9.8222 C   0  0  3  0  0  0  0  0  0  0  0  0
    2.7272   -2.7529   10.5479 O   0  0  0  0  0  0  0  0  0  0  0  0
    3.1280   -2.4372   11.8114 C   0  0  0  0  0  0  0  0  0  0  0  0
    2.7552   -1.4204   12.3757 O   0  0  0  0  0  0  0  0  0  0  0  0
    3.9972   -3.3265   12.3628 O   0  0  0  0  0  0  0  0  0  0  0  0
    3.9897   -4.7018   11.9415 C   0  0  0  0  0  0  0  0  0  0  0  0
    3.7225   -4.8398   10.4745 C   0  0  0  0  0  0  0  0  0  0  0  0
    3.4656   -5.9877    9.8043 C   0  0  0  0  0  0  0  0  0  0  0  0
    3.1423   -5.9656    8.4498 O   0  3  0  0  0  0  0  0  0  0  0  0
    3.5171   -7.3256   10.4361 C   0  0  0  0  0  0  0  0  0  0  0  0
    3.2484   -8.5085    9.6658 O   0  0  0  0  0  0  0  0  0  0  0  0
    4.5828   -8.2360   10.1357 O   0  0  0  0  0  0  0  0  0  0  0  0
    2.8139   -3.9068    4.1474 C   0  0  0  0  0  0  0  0  0  0  0  0
    1.5629   -3.7895    3.6653 N   0  0  0  0  0  0  0  0  0  0  0  0
    1.4379   -3.9108    2.3393 C   0  0  0  0  0  0  0  0  0  0  0  0
    0.2200   -3.7431    1.8082 F   0  0  0  0  0  0  0  0  0  0  0  0
    2.4275   -4.1768    1.4885 N   0  0  0  0  0  0  0  0  0  0  0  0
    3.6764   -4.2968    1.9502 C   0  0  0  0  0  0  0  0  0  0  0  0
    3.9301   -4.1706    3.3301 C   0  0  0  0  0  0  0  0  0  0  0  0
    5.2503   -4.2682    3.8033 C   0  0  0  0  0  0  0  0  0  0  0  0
    6.3095   -4.3570    2.9027 C   0  0  0  0  0  0  0  0  0  0  0  0
    7.6845   -4.2641    3.4058 C   0  0  0  0  0  0  0  0  0  0  0  0
    7.9212   -4.2193    4.6034 O   0  0  0  0  0  0  0  0  0  0  0  0
    8.7762   -4.1703    2.3678 C   0  0  0  0  0  0  0  0  0  0  0  0
    9.9329   -4.4383    2.6538 O   0  0  0  0  0  0  0  0  0  0  0  0
    8.2907   -3.7110    1.0193 C   0  0  1  0  0  0  0  0  0  0  0  0
    7.1067   -4.4305    0.6226 O   0  0  0  0  0  0  0  0  0  0  0  0
    6.0775   -4.4367    1.5331 C   0  0  0  0  0  0  0  0  0  0  0  0
    4.7541   -4.4983    1.0516 C   0  0  0  0  0  0  0  0  0  0  0  0
    4.5359   -4.6591   -0.4129 C   0  0  0  0  0  0  0  0  0  0  0  0
    3.4927   -5.2893   -0.9725 C   0  0  0  0  0  0  0  0  0  0  0  0
    8.0758   -2.2212    0.9550 C   0  0  1  0  0  0  0  0  0  0  0  0
    7.1104   -1.6454    1.8630 O   0  0  0  0  0  0  0  0  0  0  0  0
    9.2419   -1.4186    0.7772 O   0  0  0  0  0  0  0  0  0  0  0  0
    8.3955   -1.4919   -0.2725 C   0  0  0  0  0  0  0  0  0  0  0  0
    8.5938   -1.8641   -1.4028 O   0  0  0  0  0  0  0  0  0  0  0  0
    3.3051    1.0734    4.9886 C   0  0  0  0  0  0  0  0  0  0  0  0
    3.6414    0.9571    3.8202 O   0  0  0  0  0  0  0  0  0  0  0  0
    3.0826    2.4320    5.6294 C   0  0  0  0  0  0  0  0  0  0  0  0
    3.1273    3.4507    4.9611 O   0  0  0  0  0  0  0  0  0  0  0  0
    2.7934    2.5024    7.1208 C   0  0  0  0  0  0  0  0  0  0  0  0
    2.1577    3.4098    7.6253 O   0  0  0  0  0  0  0  0  0  0  0  0
  1  2  1  0  0  0  0
  2  3  2  0  0  0  0
  3  4  1  0  0  0  0
  3 53  1  0  0  0  0
  4  5  1  0  0  0  0
  5  6  1  6  0  0  0
  5 49  1  0  0  0  0
  6  7  1  0  0  0  0
  7  8  2  0  0  0  0
  7 12  1  0  0  0  0
  8  9  1  0  0  0  0
  8 25  1  0  0  0  0
  9 10  1  0  0  0  0
 10 11  2  0  0  0  0
 10 21  1  0  0  0  0
 11 12  1  0  0  0  0
 11 13  1  0  0  0  0
 13 14  1  0  0  0  0
 13 19  1  0  0  0  0
 14 15  1  0  0  0  0
 15 16  2  0  0  0  0
 15 17  1  0  0  0  0
 17 18  1  0  0  0  0
 18 19  1  0  0  0  0
 19 20  2  0  0  0  0
 20 21  1  0  0  0  0
 20 22  1  0  0  0  0
 22 23  1  0  0  0  0
 22 24  1  0  0  0  0
 23 24  1  0  0  0  0
 25 26  2  0  0  0  0
 25 31  1  0  0  0  0
 26 27  1  0  0  0  0
 27 28  1  0  0  0  0
 27 29  2  0  0  0  0
 29 30  1  0  0  0  0
 30 31  2  0  0  0  0
 30 41  1  0  0  0  0
 31 32  1  0  0  0  0
 32 33  2  0  0  0  0
 33 34  1  0  0  0  0
 33 40  1  0  0  0  0
 34 35  2  0  0  0  0
 34 36  1  0  0  0  0
 36 37  2  0  0  0  0
 38 36  1  1  0  0  0
 38 39  1  0  0  0  0
 38 44  1  0  0  0  0
 39 40  1  0  0  0  0
 40 41  2  0  0  0  0
 41 42  1  0  0  0  0
 42 43  2  0  0  0  0
 44 45  1  1  0  0  0
 44 46  1  0  0  0  0
 44 47  1  0  0  0  0
 46 47  1  0  0  0  0
 47 48  2  0  0  0  0
 49 50  2  0  0  0  0
 49 51  1  0  0  0  0
 51 52  2  0  0  0  0
 51 53  1  0  0  0  0
 53 54  2  0  0  0  0
M  CHG  1  21   1
M  END
$$$$