
 OpenBabel11222023223D

 54 63  0  0  1  0  0  0  0  0999 V2000
    4.8936   -7.8806  -20.7721 O   0  0  0  0  0  0  0  0  0  0  0  0
    3.7357   -8.5392  -20.4537 C   0  0  0  0  0  0  0  0  0  0  0  0
    3.0703   -8.3212  -19.3139 C   0  0  0  0  0  0  0  0  0  0  0  0
    3.5432   -7.4280  -18.3639 O   0  0  0  0  0  0  0  0  0  0  0  0
    2.5221   -6.7369  -17.6649 C   0  0  2  0  0  0  0  0  0  0  0  0
    3.0773   -5.9175  -16.6105 O   0  0  0  0  0  0  0  0  0  0  0  0
    3.3720   -4.5843  -16.8550 C   0  0  0  0  0  0  0  0  0  0  0  0
    3.2814   -3.6606  -15.8626 C   0  0  0  0  0  0  0  0  0  0  0  0
    3.7034   -2.3515  -16.0504 O   0  0  0  0  0  0  0  0  0  0  0  0
    4.3370   -1.9786  -17.2191 C   0  0  0  0  0  0  0  0  0  0  0  0
    4.4094   -2.7935  -18.2841 C   0  0  0  0  0  0  0  0  0  0  0  0
    3.9137   -4.2069  -18.2244 C   0  0  0  0  0  0  0  0  0  0  0  0
    5.0317   -2.3014  -19.5751 C   0  0  3  0  0  0  0  0  0  0  0  0
    4.0097   -2.3288  -20.5705 O   0  0  0  0  0  0  0  0  0  0  0  0
    4.0977   -1.5909  -21.7081 C   0  0  0  0  0  0  0  0  0  0  0  0
    3.2499   -1.6952  -22.5850 O   0  0  0  0  0  0  0  0  0  0  0  0
    5.1289   -0.7184  -21.8232 O   0  0  0  0  0  0  0  0  0  0  0  0
    6.1025   -0.5043  -20.8084 C   0  0  3  0  0  0  0  0  0  0  0  0
    5.5794   -0.9194  -19.4932 C   0  0  0  0  0  0  0  0  0  0  0  0
    5.5414   -0.1920  -18.3559 C   0  0  0  0  0  0  0  0  0  0  0  0
    4.8904   -0.7238  -17.2528 N   0  0  0  0  0  0  0  0  0  0  0  0
    6.1367    1.1531  -18.1853 C   0  0  0  0  0  0  0  0  0  0  0  0
    7.1125    1.4129  -17.1616 O   0  0  0  0  0  0  0  0  0  0  0  0
    7.4981    1.4373  -18.5486 O   0  0  0  0  0  0  0  0  0  0  0  0
    7.2605   -1.2646  -21.0964 O   0  0  0  0  0  0  0  0  0  0  0  0
    2.7258   -3.9177  -14.4911 C   0  0  0  0  0  0  0  0  0  0  0  0
    1.6912   -4.8380  -14.3800 C   0  0  0  0  0  0  0  0  0  0  0  0
    1.1810   -5.1990  -13.2045 N   0  3  0  0  0  0  0  0  0  0  0  0
    0.2452   -6.1675  -13.1692 F   0  0  0  0  0  0  0  0  0  0  0  0
    1.5455   -4.6299  -12.0760 N   0  0  0  0  0  0  0  0  0  0  0  0
    2.4454   -3.6446  -12.1026 C   0  0  0  0  0  0  0  0  0  0  0  0
    3.0932   -3.2410  -13.2929 C   0  0  0  0  0  0  0  0  0  0  0  0
    4.0233   -2.1691  -13.1897 C   0  0  0  0  0  0  0  0  0  0  0  0
    4.2418   -1.4875  -11.9837 C   0  0  0  0  0  0  0  0  0  0  0  0
    3.6189   -1.9152  -10.8269 C   0  0  0  0  0  0  0  0  0  0  0  0
    2.7316   -2.9853  -10.9055 C   0  0  0  0  0  0  0  0  0  0  0  0
    2.1033   -3.3831   -9.7873 F   0  0  0  0  0  0  0  0  0  0  0  0
    3.8141   -1.3169   -9.6081 O   0  0  0  0  0  0  0  0  0  0  0  0
    5.0551   -0.5732   -9.5141 C   0  0  1  0  0  0  0  0  0  0  0  0
    5.3080    0.3795  -10.6040 C   0  0  0  0  0  0  0  0  0  0  0  0
    5.6911    1.5257  -10.4672 O   0  0  0  0  0  0  0  0  0  0  0  0
    5.0858   -0.2790  -11.9531 C   0  0  0  0  0  0  0  0  0  0  0  0
    5.5736    0.1666  -12.9785 O   0  0  0  0  0  0  0  0  0  0  0  0
    5.4692   -0.2054   -8.2245 O   0  0  0  0  0  0  0  0  0  0  0  0
    6.2660   -1.2187   -8.9097 C   0  0  1  0  0  0  0  0  0  0  0  0
    5.9201   -2.6390   -8.7101 O   0  0  0  0  0  0  0  0  0  0  0  0
    6.7854   -2.0880   -7.8854 C   0  0  0  0  0  0  0  0  0  0  0  0
    7.9114   -2.4200   -7.5802 O   0  0  0  0  0  0  0  0  0  0  0  0
    1.5837   -7.6858  -16.9252 C   0  0  0  0  0  0  0  0  0  0  0  0
    1.0554   -7.4561  -15.8399 O   0  0  0  0  0  0  0  0  0  0  0  0
    1.2811   -8.9494  -17.6824 C   0  0  0  0  0  0  0  0  0  0  0  0
    0.6059   -9.8200  -17.1587 O   0  0  0  0  0  0  0  0  0  0  0  0
    1.8294   -9.1098  -19.0785 C   0  0  0  0  0  0  0  0  0  0  0  0
    1.2546   -9.7794  -19.9173 O   0  0  0  0  0  0  0  0  0  0  0  0
  1  2  1  0  0  0  0
  2  3  2  0  0  0  0
  3  4  1  0  0  0  0
  3 53  1  0  0  0  0
  4  5  1  0  0  0  0
  5  6  1  1  0  0  0
  5 49  1  0  0  0  0
  6  7  1  0  0  0  0
  7  8  2  0  0  0  0
  7 12  1  0  0  0  0
  8  9  1  0  0  0  0
  8 26  1  0  0  0  0
  9 10  1  0  0  0  0
 10 11  2  0  0  0  0
 10 21  1  0  0  0  0
 11 12  1  0  0  0  0
 11 13  1  0  0  0  0
 13 14  1  0  0  0  0
 13 19  1  0  0  0  0
 14 15  1  0  0  0  0
 15 16  2  0  0  0  0
 15 17  1  0  0  0  0
 17 18  1  0  0  0  0
 18 19  1  0  0  0  0
 18 25  1  0  0  0  0
 19 20  2  0  0  0  0
 20 21  1  0  0  0  0
 20 22  1  0  0  0  0
 22 23  1  0  0  0  0
 22 24  1  0  0  0  0
 23 24  1  0  0  0  0
 26 27  2  0  0  0  0
 26 32  1  0  0  0  0
 27 28  1  0  0  0  0
 28 29  1  0  0  0  0
 28 30  2  0  0  0  0
 30 31  1  0  0  0  0
 31 32  2  0  0  0  0
 31 36  1  0  0  0  0
 32 33  1  0  0  0  0
 33 34  2  0  0  0  0
 34 35  1  0  0  0  0
 34 42  1  0  0  0  0
 35 36  2  0  0  0  0
 35 38  1  0  0  0  0
 36 37  1  0  0  0  0
 39 38  1  6  0  0  0
 39 40  1  0  0  0  0
 39 44  1  0  0  0  0
 39 45  1  0  0  0  0
 40 41  2  0  0  0  0
 40 42  1  0  0  0  0
 42 43  2  0  0  0  0
 45 44  1  1  0  0  0
 45 46  1  0  0  0  0
 45 47  1  0  0  0  0
 46 47  1  0  0  0  0
 47 48  2  0  0  0  0
 49 50  2  0  0  0  0
 49 51  1  0  0  0  0
 51 52  2  0  0  0  0
 51 53  1  0  0  0  0
 53 54  2  0  0  0  0
M  CHG  1  28   1
M  END
$$$$