
 OpenBabel09232010043D

 52 60  0  0  1  0  0  0  0  0999 V2000
    7.2643    3.0202   -4.7936 O   0  0  0  0  0  0  0  0  0  0  0  0
    7.1578    1.6983   -4.4489 C   0  0  0  0  0  0  0  0  0  0  0  0
    6.0333    1.1545   -3.9646 C   0  0  0  0  0  0  0  0  0  0  0  0
    4.9118    1.9222   -3.7094 O   0  0  0  0  0  0  0  0  0  0  0  0
    3.6804    1.3298   -4.1196 C   0  0  2  0  0  0  0  0  0  0  0  0
    2.5611    2.1965   -3.8389 O   0  0  0  0  0  0  0  0  0  0  0  0
    2.5563    3.4265   -4.5001 C   0  0  0  0  0  0  0  0  0  0  0  0
    1.9835    4.5323   -3.9759 C   0  0  0  0  0  0  0  0  0  0  0  0
    2.0066    5.7849   -4.5982 O   0  0  0  0  0  0  0  0  0  0  0  0
    2.6395    5.9301   -5.8203 C   0  0  0  0  0  0  0  0  0  0  0  0
    3.1595    4.8467   -6.4948 C   0  0  0  0  0  0  0  0  0  0  0  0
    3.1651    3.4945   -5.8697 C   0  0  0  0  0  0  0  0  0  0  0  0
    3.7408    5.0804   -7.7407 C   0  0  0  0  0  0  0  0  0  0  0  0
    4.2453    4.0146   -8.4981 N   0  0  0  0  0  0  0  0  0  0  0  0
    4.9681    4.1477   -9.6381 C   0  0  0  0  0  0  0  0  0  0  0  0
    5.4304    3.1720  -10.2185 O   0  0  0  0  0  0  0  0  0  0  0  0
    5.1916    5.4049  -10.0756 N   0  0  0  0  0  0  0  0  0  0  0  0
    4.4786    6.5581   -9.5980 C   0  0  0  0  0  0  0  0  0  0  0  0
    3.8423    6.3723   -8.2542 C   0  0  0  0  0  0  0  0  0  0  0  0
    3.2942    7.4327   -7.5185 C   0  0  0  0  0  0  0  0  0  0  0  0
    2.6913    7.1942   -6.3095 N   0  0  0  0  0  0  0  0  0  0  0  0
    3.3175    8.8783   -7.9925 C   0  0  0  0  0  0  0  0  0  0  0  0
    3.9005    9.2380   -9.2570 O   0  0  0  0  0  0  0  0  0  0  0  0
    2.4708    9.2088   -9.1073 O   0  0  0  0  0  0  0  0  0  0  0  0
    1.2919    4.5581   -2.6673 C   0  0  0  0  0  0  0  0  0  0  0  0
    2.1025    4.8415   -1.6237 N   0  0  0  0  0  0  0  0  0  0  0  0
    1.5057    4.9735   -0.4363 C   0  0  0  0  0  0  0  0  0  0  0  0
    0.1927    4.8712   -0.1956 N   0  0  0  0  0  0  0  0  0  0  0  0
   -0.5969    4.5927   -1.2344 C   0  0  0  0  0  0  0  0  0  0  0  0
   -0.1061    4.4001   -2.5359 C   0  0  0  0  0  0  0  0  0  0  0  0
   -1.0288    4.0813   -3.5699 C   0  0  0  0  0  0  0  0  0  0  0  0
   -2.4013    3.9764   -3.2967 C   0  0  0  0  0  0  0  0  0  0  0  0
   -2.8793    4.2186   -2.0192 C   0  0  0  0  0  0  0  0  0  0  0  0
   -1.9670    4.5063   -1.0028 C   0  0  0  0  0  0  0  0  0  0  0  0
   -4.1930    4.1854   -1.6493 O   0  0  0  0  0  0  0  0  0  0  0  0
   -5.1787    4.1555   -2.6880 C   0  0  2  0  0  0  0  0  0  0  0  0
   -4.7870    3.3980   -3.9321 C   0  0  0  0  0  0  0  0  0  0  0  0
   -5.5585    2.7371   -4.6132 O   0  0  0  0  0  0  0  0  0  0  0  0
   -3.3458    3.5799   -4.3465 C   0  0  0  0  0  0  0  0  0  0  0  0
   -2.9937    3.3980   -5.5010 O   0  0  0  0  0  0  0  0  0  0  0  0
   -5.6366    5.5477   -3.0259 C   0  0  1  0  0  0  0  0  0  0  0  0
   -4.6233    6.4673   -3.4958 O   0  0  0  0  0  0  0  0  0  0  0  0
   -6.8716    5.6528   -3.7348 O   0  0  0  0  0  0  0  0  0  0  0  0
   -6.8624    6.0915   -2.4594 C   0  0  0  0  0  0  0  0  0  0  0  0
   -7.5500    5.7686   -1.5238 O   0  0  0  0  0  0  0  0  0  0  0  0
    3.4915   -0.0721   -3.5133 C   0  0  0  0  0  0  0  0  0  0  0  0
    2.4195   -0.5116   -3.1052 O   0  0  0  0  0  0  0  0  0  0  0  0
    4.7058   -0.9319   -3.5911 C   0  0  0  0  0  0  0  0  0  0  0  0
    4.5667   -2.2621   -3.7086 C   0  0  0  0  0  0  0  0  0  0  0  0
    5.5816   -3.1715   -3.8936 O   0  0  0  0  0  0  0  0  0  0  0  0
    6.0448   -0.3181   -3.7250 C   0  0  0  0  0  0  0  0  0  0  0  0
    7.0725   -0.9909   -3.7047 O   0  0  0  0  0  0  0  0  0  0  0  0
  1  2  1  0  0  0  0
  2  3  2  0  0  0  0
  3  4  1  0  0  0  0
  3 51  1  0  0  0  0
  4  5  1  0  0  0  0
  5  6  1  1  0  0  0
  5 46  1  0  0  0  0
  6  7  1  0  0  0  0
  7  8  2  0  0  0  0
  7 12  1  0  0  0  0
  8  9  1  0  0  0  0
  8 25  1  0  0  0  0
  9 10  1  0  0  0  0
 10 11  2  0  0  0  0
 10 21  1  0  0  0  0
 11 12  1  0  0  0  0
 11 13  1  0  0  0  0
 13 14  1  0  0  0  0
 13 19  2  0  0  0  0
 14 15  1  0  0  0  0
 15 16  2  0  0  0  0
 15 17  1  0  0  0  0
 17 18  1  0  0  0  0
 18 19  1  0  0  0  0
 19 20  1  0  0  0  0
 20 21  2  0  0  0  0
 20 22  1  0  0  0  0
 22 23  1  0  0  0  0
 22 24  1  0  0  0  0
 23 24  1  0  0  0  0
 25 26  2  0  0  0  0
 25 30  1  0  0  0  0
 26 27  1  0  0  0  0
 27 28  2  0  0  0  0
 28 29  1  0  0  0  0
 29 30  2  0  0  0  0
 29 34  1  0  0  0  0
 30 31  1  0  0  0  0
 31 32  2  0  0  0  0
 32 33  1  0  0  0  0
 32 39  1  0  0  0  0
 33 34  2  0  0  0  0
 33 35  1  0  0  0  0
 36 35  1  1  0  0  0
 36 37  1  0  0  0  0
 36 41  1  0  0  0  0
 37 38  2  0  0  0  0
 37 39  1  0  0  0  0
 39 40  2  0  0  0  0
 41 42  1  6  0  0  0
 41 43  1  0  0  0  0
 41 44  1  0  0  0  0
 43 44  1  0  0  0  0
 44 45  2  0  0  0  0
 46 47  2  0  0  0  0
 46 48  1  0  0  0  0
 48 49  2  0  0  0  0
 48 51  1  0  0  0  0
 49 50  1  0  0  0  0
 51 52  2  0  0  0  0
M  END
$$$$