
 OpenBabel09222020063D

 51 59  0  0  1  0  0  0  0  0999 V2000
   -1.1505   -6.3933    4.2864 O   0  0  0  0  0  0  0  0  0  0  0  0
   -1.5504   -5.0924    4.1119 C   0  0  0  0  0  0  0  0  0  0  0  0
   -0.7277   -4.1206    3.6928 C   0  0  0  0  0  0  0  0  0  0  0  0
    0.6127   -4.3494    3.4652 O   0  0  0  0  0  0  0  0  0  0  0  0
    1.0950   -3.7608    2.2503 C   0  0  2  0  0  0  0  0  0  0  0  0
    2.4194   -4.2117    1.9286 O   0  0  0  0  0  0  0  0  0  0  0  0
    2.5705   -5.5685    1.6554 C   0  0  0  0  0  0  0  0  0  0  0  0
    3.5310   -6.0208    0.8240 C   0  0  0  0  0  0  0  0  0  0  0  0
    3.7550   -7.3657    0.5588 O   0  0  0  0  0  0  0  0  0  0  0  0
    2.9303   -8.3132    1.1261 C   0  0  0  0  0  0  0  0  0  0  0  0
    1.8927   -7.9759    1.9692 C   0  0  0  0  0  0  0  0  0  0  0  0
    1.6612   -6.5513    2.3365 C   0  0  0  0  0  0  0  0  0  0  0  0
    1.0962   -9.0121    2.4594 C   0  0  0  0  0  0  0  0  0  0  0  0
    0.0044   -8.7384    3.2917 N   0  0  0  0  0  0  0  0  0  0  0  0
   -0.8169   -9.6696    3.8376 C   0  0  0  0  0  0  0  0  0  0  0  0
   -1.7544   -9.3416    4.5608 O   0  0  0  0  0  0  0  0  0  0  0  0
   -0.5559  -10.9640    3.5470 N   0  0  0  0  0  0  0  0  0  0  0  0
    0.4917  -11.4227    2.6674 C   0  0  0  0  0  0  0  0  0  0  0  0
    1.3705  -10.3369    2.1284 C   0  0  0  0  0  0  0  0  0  0  0  0
    2.4610  -10.6039    1.2883 C   0  0  0  0  0  0  0  0  0  0  0  0
    3.2132   -9.5862    0.7816 N   0  0  0  0  0  0  0  0  0  0  0  0
    2.8457  -12.0044    0.8672 C   0  0  0  0  0  0  0  0  0  0  0  0
    4.1668  -12.4524    1.2162 O   0  0  0  0  0  0  0  0  0  0  0  0
    3.0173  -13.0129    1.8755 O   0  0  0  0  0  0  0  0  0  0  0  0
    4.4143   -5.1234    0.0551 C   0  0  0  0  0  0  0  0  0  0  0  0
    3.9173   -4.7780   -1.1544 N   0  0  0  0  0  0  0  0  0  0  0  0
    4.6891   -3.9795   -1.8967 C   0  0  0  0  0  0  0  0  0  0  0  0
    5.8841   -3.4875   -1.5469 N   0  0  0  0  0  0  0  0  0  0  0  0
    6.3562   -3.8327   -0.3463 C   0  0  0  0  0  0  0  0  0  0  0  0
    5.6621   -4.6847    0.5274 C   0  0  0  0  0  0  0  0  0  0  0  0
    6.2476   -5.0330    1.7691 C   0  0  0  0  0  0  0  0  0  0  0  0
    7.4870   -4.5027    2.1363 C   0  0  0  0  0  0  0  0  0  0  0  0
    8.1484   -3.6210    1.2914 C   0  0  0  0  0  0  0  0  0  0  0  0
    7.5867   -3.3187    0.0497 C   0  0  0  0  0  0  0  0  0  0  0  0
    9.3383   -3.0103    1.5797 O   0  0  0  0  0  0  0  0  0  0  0  0
    9.7208   -2.9853    2.9609 C   0  0  2  0  0  0  0  0  0  0  0  0
    9.4533   -4.2693    3.7076 C   0  0  0  0  0  0  0  0  0  0  0  0
   10.2246   -4.7799    4.5074 O   0  0  0  0  0  0  0  0  0  0  0  0
    8.1063   -4.8840    3.4112 C   0  0  0  0  0  0  0  0  0  0  0  0
    7.5797   -5.6669    4.1849 O   0  0  0  0  0  0  0  0  0  0  0  0
    9.1031   -1.8163    3.6621 C   0  0  1  0  0  0  0  0  0  0  0  0
    7.6561   -1.7600    3.6845 O   0  0  0  0  0  0  0  0  0  0  0  0
    9.7536   -1.4457    4.8798 O   0  0  0  0  0  0  0  0  0  0  0  0
    9.7875   -0.5439    3.8809 C   0  0  0  0  0  0  0  0  0  0  0  0
    9.3595    0.5881    3.8435 O   0  0  0  0  0  0  0  0  0  0  0  0
    1.0792   -2.2532    2.4412 C   0  0  0  0  0  0  0  0  0  0  0  0
    1.9788   -1.4776    2.1534 O   0  0  0  0  0  0  0  0  0  0  0  0
   -0.2339   -1.7536    3.0088 C   0  0  0  0  0  0  0  0  0  0  0  0
   -0.4737   -0.5567    3.0460 O   0  0  0  0  0  0  0  0  0  0  0  0
   -1.2678   -2.7504    3.5035 C   0  0  0  0  0  0  0  0  0  0  0  0
   -2.4353   -2.4473    3.6775 O   0  0  0  0  0  0  0  0  0  0  0  0
  1  2  1  0  0  0  0
  2  3  2  0  0  0  0
  3  4  1  0  0  0  0
  3 50  1  0  0  0  0
  4  5  1  0  0  0  0
  5  6  1  1  0  0  0
  5 46  1  0  0  0  0
  6  7  1  0  0  0  0
  7  8  2  0  0  0  0
  7 12  1  0  0  0  0
  8  9  1  0  0  0  0
  8 25  1  0  0  0  0
  9 10  1  0  0  0  0
 10 11  2  0  0  0  0
 10 21  1  0  0  0  0
 11 12  1  0  0  0  0
 11 13  1  0  0  0  0
 13 14  1  0  0  0  0
 13 19  2  0  0  0  0
 14 15  1  0  0  0  0
 15 16  2  0  0  0  0
 15 17  1  0  0  0  0
 17 18  1  0  0  0  0
 18 19  1  0  0  0  0
 19 20  1  0  0  0  0
 20 21  2  0  0  0  0
 20 22  1  0  0  0  0
 22 23  1  0  0  0  0
 22 24  1  0  0  0  0
 23 24  1  0  0  0  0
 25 26  2  0  0  0  0
 25 30  1  0  0  0  0
 26 27  1  0  0  0  0
 27 28  2  0  0  0  0
 28 29  1  0  0  0  0
 29 30  2  0  0  0  0
 29 34  1  0  0  0  0
 30 31  1  0  0  0  0
 31 32  2  0  0  0  0
 32 33  1  0  0  0  0
 32 39  1  0  0  0  0
 33 34  2  0  0  0  0
 33 35  1  0  0  0  0
 36 35  1  6  0  0  0
 36 37  1  0  0  0  0
 36 41  1  0  0  0  0
 37 38  2  0  0  0  0
 37 39  1  0  0  0  0
 39 40  2  0  0  0  0
 41 42  1  1  0  0  0
 41 43  1  0  0  0  0
 41 44  1  0  0  0  0
 43 44  1  0  0  0  0
 44 45  2  0  0  0  0
 46 47  2  0  0  0  0
 46 48  1  0  0  0  0
 48 49  2  0  0  0  0
 48 50  1  0  0  0  0
 50 51  2  0  0  0  0
M  END
$$$$