
 OpenBabel05152118393D

 51 61  0  0  1  0  0  0  0  0999 V2000
    2.9893    2.2449   -1.3542 F   0  0  0  0  0  0  0  0  0  0  0  0
    3.9665    1.4623   -1.8308 C   0  0  0  0  0  0  0  0  0  0  0  0
    4.6459    1.8426   -2.9733 C   0  0  0  0  0  0  0  0  0  0  0  0
    5.6153    0.9889   -3.4783 C   0  0  0  0  0  0  0  0  0  0  0  0
    5.8514   -0.2493   -2.8629 C   0  0  0  0  0  0  0  0  0  0  0  0
    5.2140   -0.6531   -1.6681 C   0  0  0  0  0  0  0  0  0  0  0  0
    4.2743    0.2710   -1.1653 C   0  0  0  0  0  0  0  0  0  0  0  0
    5.4759   -1.9807   -0.9908 C   0  0  0  0  0  0  0  0  0  0  0  0
    4.4306   -2.7437   -0.4135 C   0  0  0  0  0  0  0  0  0  0  0  0
    2.9726   -2.3448   -0.3470 C   0  0  0  0  0  0  0  0  0  0  0  0
    4.7034   -4.0055    0.1600 C   0  0  0  0  0  0  0  0  0  0  0  0
    5.9668   -4.6222    0.1962 C   0  0  0  0  0  0  0  0  0  0  0  0
    7.0235   -3.9151   -0.4021 C   0  0  0  0  0  0  0  0  0  0  0  0
    6.7634   -2.6067   -0.9421 C   0  0  0  0  0  0  0  0  0  0  0  0
    7.9879   -1.9496   -1.4620 C   0  0  0  0  0  0  0  0  0  0  0  0
    8.2509   -0.7776   -1.2006 O   0  0  0  0  0  0  0  0  0  0  0  0
    8.9365   -2.8706   -2.2576 C   0  0  1  0  0  0  0  0  0  0  0  0
    9.4425   -3.8768   -1.2229 C   0  0  2  0  0  0  0  0  0  0  0  0
    8.2969   -4.5576   -0.4956 C   0  0  0  0  0  0  0  0  0  0  0  0
    8.5001   -5.8540   -0.0146 C   0  0  0  0  0  0  0  0  0  0  0  0
    7.4543   -6.5362    0.5897 C   0  0  0  0  0  0  0  0  0  0  0  0
    6.2011   -5.9289    0.7163 C   0  0  0  0  0  0  0  0  0  0  0  0
    5.1421   -6.7387    1.3660 C   0  0  0  0  0  0  0  0  0  0  0  0
    4.8107   -8.0283    1.5536 C   0  0  0  0  0  0  0  0  0  0  0  0
    3.6481   -7.6161    2.2805 C   0  0  0  0  0  0  0  0  0  0  0  0
    4.0384   -6.3333    2.1763 C   0  0  0  0  0  0  0  0  0  0  0  0
    9.6627   -6.5578   -0.1548 O   0  0  0  0  0  0  0  0  0  0  0  0
   10.7303   -5.9702   -0.9097 C   0  0  2  0  0  0  0  0  0  0  0  0
   10.2982   -4.9180   -1.9303 C   0  0  1  0  0  0  0  0  0  0  0  0
    9.5158   -5.5096   -3.0801 C   0  0  0  0  0  0  0  0  0  0  0  0
    8.5565   -4.7285   -3.7293 C   0  0  0  0  0  0  0  0  0  0  0  0
    8.2344   -3.4508   -3.3623 O   0  0  0  0  0  0  0  0  0  0  0  0
    7.8192   -5.2759   -4.7742 C   0  0  0  0  0  0  0  0  0  0  0  0
    8.0394   -6.5966   -5.1744 C   0  0  0  0  0  0  0  0  0  0  0  0
    8.9963   -7.3958   -4.5276 C   0  0  0  0  0  0  0  0  0  0  0  0
    9.7402   -6.8524   -3.4653 C   0  0  0  0  0  0  0  0  0  0  0  0
   10.6814   -7.6777   -2.8229 C   0  0  0  0  0  0  0  0  0  0  0  0
   11.4156   -7.1389   -1.6498 C   0  0  0  0  0  0  0  0  0  0  0  0
   12.4651   -7.6317   -1.2763 O   0  0  0  0  0  0  0  0  0  0  0  0
   10.9121   -9.0001   -3.2291 C   0  0  0  0  0  0  0  0  0  0  0  0
   10.1463   -9.5549   -4.2512 C   0  0  0  0  0  0  0  0  0  0  0  0
    9.2219   -8.7303   -4.9122 C   0  0  0  0  0  0  0  0  0  0  0  0
   10.4574  -11.2220   -4.8413 S   0  3  0  0  0  0  0  0  0  0  0  0
    8.8109  -11.8069   -5.3123 C   0  0  0  0  0  0  0  0  0  0  0  0
    7.7835  -11.7747   -4.1937 C   0  0  0  0  0  0  0  0  0  0  0  0
    8.1592  -12.7375   -3.0797 C   0  0  0  0  0  0  0  0  0  0  0  0
    9.4624  -12.3271   -2.4059 C   0  0  0  0  0  0  0  0  0  0  0  0
   10.6556  -12.2219   -3.3448 C   0  0  0  0  0  0  0  0  0  0  0  0
   11.6734   -5.3858   -0.0098 O   0  0  0  0  0  0  0  0  0  0  0  0
   10.0423   -2.1089   -2.7434 O   0  0  0  0  0  0  0  0  0  0  0  0
    6.7102   -1.0646   -3.4916 F   0  0  0  0  0  0  0  0  0  0  0  0
  1  2  1  0  0  0  0
  2  3  2  0  0  0  0
  2  7  1  0  0  0  0
  3  4  1  0  0  0  0
  4  5  2  0  0  0  0
  5  6  1  0  0  0  0
  5 51  1  0  0  0  0
  6  7  2  0  0  0  0
  6  8  1  0  0  0  0
  8  9  2  0  0  0  0
  8 14  1  0  0  0  0
  9 11  1  0  0  0  0
  9 10  1  0  0  0  0
 11 12  2  0  0  0  0
 12 13  1  0  0  0  0
 12 22  1  0  0  0  0
 13 14  2  0  0  0  0
 13 19  1  0  0  0  0
 14 15  1  0  0  0  0
 15 17  1  0  0  0  0
 15 16  2  0  0  0  0
 17 18  1  0  0  0  0
 17 32  1  0  0  0  0
 17 50  1  6  0  0  0
 18 19  1  1  0  0  0
 18 29  1  0  0  0  0
 19 20  2  0  0  0  0
 20 21  1  0  0  0  0
 20 27  1  0  0  0  0
 21 22  2  0  0  0  0
 22 23  1  0  0  0  0
 23 24  2  0  0  0  0
 23 26  1  0  0  0  0
 24 25  1  0  0  0  0
 25 26  2  0  0  0  0
 27 28  1  0  0  0  0
 28 29  1  0  0  0  0
 28 38  1  0  0  0  0
 28 49  1  1  0  0  0
 29 30  1  6  0  0  0
 30 31  2  0  0  0  0
 30 36  1  0  0  0  0
 31 32  1  0  0  0  0
 31 33  1  0  0  0  0
 33 34  2  0  0  0  0
 34 35  1  0  0  0  0
 35 36  2  0  0  0  0
 35 42  1  0  0  0  0
 36 37  1  0  0  0  0
 37 38  1  0  0  0  0
 37 40  2  0  0  0  0
 38 39  2  0  0  0  0
 40 41  1  0  0  0  0
 41 42  2  0  0  0  0
 41 43  1  0  0  0  0
 43 44  1  0  0  0  0
 43 48  1  0  0  0  0
 44 45  1  0  0  0  0
 45 46  1  0  0  0  0
 46 47  1  0  0  0  0
 47 48  1  0  0  0  0
M  CHG  1  43   1
M  END
$$$$