
 OpenBabel11152013473D

 54 62  0  0  1  0  0  0  0  0999 V2000
    4.3927   -3.3201   -4.7797 O   0  0  0  0  0  0  0  0  0  0  0  0
    4.4598   -2.3637   -3.7964 C   0  0  0  0  0  0  0  0  0  0  0  0
    3.8767   -2.4958   -2.5983 C   0  0  0  0  0  0  0  0  0  0  0  0
    3.0997   -3.5886   -2.2833 O   0  0  0  0  0  0  0  0  0  0  0  0
    3.3886   -4.1019   -0.9799 C   0  0  2  0  0  0  0  0  0  0  0  0
    2.8252   -5.4080   -0.7444 O   0  0  0  0  0  0  0  0  0  0  0  0
    3.0750   -6.4231   -1.6702 C   0  0  0  0  0  0  0  0  0  0  0  0
    2.5968   -7.6790   -1.5042 C   0  0  0  0  0  0  0  0  0  0  0  0
    2.7965   -8.6927   -2.4557 O   0  0  0  0  0  0  0  0  0  0  0  0
    3.5127   -8.4284   -3.6285 C   0  0  0  0  0  0  0  0  0  0  0  0
    4.0271   -7.2172   -3.8685 C   0  0  0  0  0  0  0  0  0  0  0  0
    3.8465   -6.0904   -2.9212 C   0  0  0  0  0  0  0  0  0  0  0  0
    4.7448   -6.8778   -5.1343 C   0  0  3  0  0  0  0  0  0  0  0  0
    6.0538   -6.4480   -4.7804 O   0  0  0  0  0  0  0  0  0  0  0  0
    6.9142   -6.1265   -5.7734 C   0  0  0  0  0  0  0  0  0  0  0  0
    7.8883   -5.4146   -5.5702 O   0  0  0  0  0  0  0  0  0  0  0  0
    6.6529   -6.6458   -6.9962 O   0  0  0  0  0  0  0  0  0  0  0  0
    5.6315   -7.6087   -7.2548 C   0  0  3  0  0  0  0  0  0  0  0  0
    4.8878   -8.0274   -6.0424 C   0  0  0  0  0  0  0  0  0  0  0  0
    4.3861   -9.2472   -5.7467 C   0  0  0  0  0  0  0  0  0  0  0  0
    3.6710   -9.4594   -4.5522 O   0  0  0  0  0  0  0  0  0  0  0  0
    4.5038  -10.4310   -6.6251 C   0  0  0  0  0  0  0  0  0  0  0  0
    5.7768  -10.9830   -7.0018 O   0  0  0  0  0  0  0  0  0  0  0  0
    4.9108  -11.7108   -6.1119 O   0  0  0  0  0  0  0  0  0  0  0  0
    4.6860   -7.0091   -8.1297 O   0  0  0  0  0  0  0  0  0  0  0  0
    1.7444   -8.1003   -0.3623 C   0  0  0  0  0  0  0  0  0  0  0  0
    0.4234   -7.9246   -0.5772 N   0  0  0  0  0  0  0  0  0  0  0  0
   -0.4375   -8.3076    0.3273 N   0  0  0  0  0  0  0  0  0  0  0  0
   -0.0676   -8.8875    1.4427 N   0  0  0  0  0  0  0  0  0  0  0  0
    1.2273   -9.1120    1.7026 C   0  0  0  0  0  0  0  0  0  0  0  0
    2.2223   -8.7125    0.8034 C   0  0  0  0  0  0  0  0  0  0  0  0
    3.5832   -8.9729    1.1176 C   0  0  0  0  0  0  0  0  0  0  0  0
    3.9174   -9.6958    2.2677 C   0  0  0  0  0  0  0  0  0  0  0  0
    5.3007  -10.0671    2.5477 C   0  0  0  0  0  0  0  0  0  0  0  0
    6.2508   -9.4429    2.1112 O   0  0  0  0  0  0  0  0  0  0  0  0
    5.4748  -11.3273    3.3574 C   0  0  0  0  0  0  0  0  0  0  0  0
    6.4228  -12.0734    3.1546 O   0  0  0  0  0  0  0  0  0  0  0  0
    4.3737  -11.5900    4.3672 C   0  0  1  0  0  0  0  0  0  0  0  0
    3.2029  -10.7616    4.3241 O   0  0  0  0  0  0  0  0  0  0  0  0
    2.9428  -10.1062    3.1555 C   0  0  0  0  0  0  0  0  0  0  0  0
    1.6140   -9.7737    2.8824 C   0  0  0  0  0  0  0  0  0  0  0  0
    0.6514  -10.1339    3.8030 O   0  0  0  0  0  0  0  0  0  0  0  0
    3.9290  -13.0261    4.4069 C   0  0  1  0  0  0  0  0  0  0  0  0
    2.8785  -13.3218    5.3640 O   0  0  0  0  0  0  0  0  0  0  0  0
    3.7929  -13.6564    3.1359 O   0  0  0  0  0  0  0  0  0  0  0  0
    4.7209  -14.1832    3.9721 C   0  0  0  0  0  0  0  0  0  0  0  0
    4.7780  -15.2950    4.4436 O   0  0  0  0  0  0  0  0  0  0  0  0
    2.8313   -3.0406   -0.0168 C   0  0  0  0  0  0  0  0  0  0  0  0
    2.1650   -3.3167    0.9828 O   0  0  0  0  0  0  0  0  0  0  0  0
    3.2369   -1.6054   -0.3017 C   0  0  3  0  0  0  0  0  0  0  0  0
    4.0199   -1.4197   -1.5758 C   0  0  0  0  0  0  0  0  0  0  0  0
    4.7196   -0.4284   -1.7686 O   0  0  0  0  0  0  0  0  0  0  0  0
    2.0180   -0.7130   -0.3834 C   0  0  0  0  0  0  0  0  0  0  0  0
    1.2569   -1.0928   -1.4467 F   0  0  0  0  0  0  0  0  0  0  0  0
  1  2  1  0  0  0  0
  2  3  2  0  0  0  0
  3  4  1  0  0  0  0
  3 51  1  0  0  0  0
  4  5  1  0  0  0  0
  5  6  1  1  0  0  0
  5 48  1  0  0  0  0
  6  7  1  0  0  0  0
  7  8  2  0  0  0  0
  7 12  1  0  0  0  0
  8  9  1  0  0  0  0
  8 26  1  0  0  0  0
  9 10  1  0  0  0  0
 10 11  2  0  0  0  0
 10 21  1  0  0  0  0
 11 12  1  0  0  0  0
 11 13  1  0  0  0  0
 13 14  1  0  0  0  0
 13 19  1  0  0  0  0
 14 15  1  0  0  0  0
 15 16  2  0  0  0  0
 15 17  1  0  0  0  0
 17 18  1  0  0  0  0
 18 19  1  0  0  0  0
 18 25  1  0  0  0  0
 19 20  2  0  0  0  0
 20 21  1  0  0  0  0
 20 22  1  0  0  0  0
 22 23  1  0  0  0  0
 22 24  1  0  0  0  0
 23 24  1  0  0  0  0
 26 27  2  0  0  0  0
 26 31  1  0  0  0  0
 27 28  1  0  0  0  0
 28 29  2  0  0  0  0
 29 30  1  0  0  0  0
 30 31  2  0  0  0  0
 30 41  1  0  0  0  0
 31 32  1  0  0  0  0
 32 33  2  0  0  0  0
 33 34  1  0  0  0  0
 33 40  1  0  0  0  0
 34 35  2  0  0  0  0
 34 36  1  0  0  0  0
 36 37  2  0  0  0  0
 38 36  1  6  0  0  0
 38 39  1  0  0  0  0
 38 43  1  0  0  0  0
 39 40  1  0  0  0  0
 40 41  2  0  0  0  0
 41 42  1  0  0  0  0
 43 44  1  1  0  0  0
 43 45  1  0  0  0  0
 43 46  1  0  0  0  0
 45 46  1  0  0  0  0
 46 47  2  0  0  0  0
 48 49  2  0  0  0  0
 48 50  1  0  0  0  0
 50 51  1  0  0  0  0
 50 53  1  0  0  0  0
 51 52  2  0  0  0  0
 53 54  1  0  0  0  0
M  END
$$$$