
 OpenBabel11152012253D

 54 63  0  0  1  0  0  0  0  0999 V2000
    2.7840   -9.3277   -5.0411 O   0  0  0  0  0  0  0  0  0  0  0  0
    1.8800   -9.1627   -4.0223 C   0  0  0  0  0  0  0  0  0  0  0  0
    1.4713   -7.9826   -3.5298 C   0  0  0  0  0  0  0  0  0  0  0  0
    1.8548   -6.7524   -4.0409 O   0  0  0  0  0  0  0  0  0  0  0  0
    0.7765   -5.8010   -4.1175 C   0  0  2  0  0  0  0  0  0  0  0  0
    1.1668   -4.6051   -4.8113 O   0  0  0  0  0  0  0  0  0  0  0  0
    1.7808   -4.7211   -6.0529 C   0  0  0  0  0  0  0  0  0  0  0  0
    1.6283   -5.7040   -6.9820 C   0  0  0  0  0  0  0  0  0  0  0  0
    2.4092   -5.7618   -8.1282 O   0  0  0  0  0  0  0  0  0  0  0  0
    2.9981   -4.6061   -8.5837 C   0  0  0  0  0  0  0  0  0  0  0  0
    3.1369   -3.5199   -7.8055 C   0  0  0  0  0  0  0  0  0  0  0  0
    2.7246   -3.5556   -6.3575 C   0  0  0  0  0  0  0  0  0  0  0  0
    3.5788   -2.2166   -8.4293 C   0  0  3  0  0  0  0  0  0  0  0  0
    4.7941   -1.7912   -7.8303 O   0  0  0  0  0  0  0  0  0  0  0  0
    5.3639   -0.6503   -8.3012 C   0  0  0  0  0  0  0  0  0  0  0  0
    6.2302   -0.0591   -7.6687 O   0  0  0  0  0  0  0  0  0  0  0  0
    4.9321   -0.1890   -9.5011 O   0  0  0  0  0  0  0  0  0  0  0  0
    4.1907   -0.9736  -10.4307 C   0  0  3  0  0  0  0  0  0  0  0  0
    3.8246   -2.2979   -9.8983 C   0  0  0  0  0  0  0  0  0  0  0  0
    3.7147   -3.4518  -10.5927 C   0  0  0  0  0  0  0  0  0  0  0  0
    3.3519   -4.5949   -9.9059 N   0  0  0  0  0  0  0  0  0  0  0  0
    3.9281   -3.6004  -12.0493 C   0  0  0  0  0  0  0  0  0  0  0  0
    2.8909   -4.0896  -12.9175 O   0  0  0  0  0  0  0  0  0  0  0  0
    3.3258   -2.7199  -13.0118 O   0  0  0  0  0  0  0  0  0  0  0  0
    2.9811   -0.2906  -10.7174 O   0  0  0  0  0  0  0  0  0  0  0  0
    0.6425   -6.7971   -6.9765 C   0  0  0  0  0  0  0  0  0  0  0  0
    1.1031   -7.9967   -6.6002 N   0  0  0  0  0  0  0  0  0  0  0  0
    0.2715   -8.9792   -6.3589 N   0  0  0  0  0  0  0  0  0  0  0  0
   -0.9986   -8.8718   -6.5020 N   0  0  0  0  0  0  0  0  0  0  0  0
   -1.4739   -7.7681   -7.0555 C   0  0  0  0  0  0  0  0  0  0  0  0
   -0.6855   -6.6495   -7.3153 C   0  0  0  0  0  0  0  0  0  0  0  0
   -1.2630   -5.5022   -7.8655 C   0  0  0  0  0  0  0  0  0  0  0  0
   -2.6411   -5.4904   -8.1133 C   0  0  0  0  0  0  0  0  0  0  0  0
   -3.4087   -6.6361   -7.8570 C   0  0  0  0  0  0  0  0  0  0  0  0
   -2.8120   -7.7603   -7.3542 C   0  0  0  0  0  0  0  0  0  0  0  0
   -4.7251   -6.6775   -8.0127 N   0  0  0  0  0  0  0  0  0  0  0  0
   -5.3544   -5.5422   -8.3748 C   0  0  0  0  0  0  0  0  0  0  0  0
   -4.6836   -4.3516   -8.6778 C   0  0  0  0  0  0  0  0  0  0  0  0
   -3.2807   -4.3457   -8.5560 C   0  0  0  0  0  0  0  0  0  0  0  0
   -2.5494   -3.2319   -8.7996 N   0  0  0  0  0  0  0  0  0  0  0  0
   -3.2203   -2.1176   -9.1338 C   0  0  0  0  0  0  0  0  0  0  0  0
   -4.5893   -2.1127   -9.2407 C   0  0  0  0  0  0  0  0  0  0  0  0
   -5.3326   -3.2189   -9.0362 N   0  0  0  0  0  0  0  0  0  0  0  0
   -6.8642   -5.5637   -8.3664 C   0  0  1  0  0  0  0  0  0  0  0  0
   -7.5428   -4.7119   -7.4076 O   0  0  0  0  0  0  0  0  0  0  0  0
   -7.5294   -5.8688   -9.5676 O   0  0  0  0  0  0  0  0  0  0  0  0
   -7.6147   -6.8521   -8.6197 C   0  0  0  0  0  0  0  0  0  0  0  0
   -8.5472   -7.3186   -8.1062 O   0  0  0  0  0  0  0  0  0  0  0  0
    0.1920   -5.4879   -2.7387 C   0  0  0  0  0  0  0  0  0  0  0  0
   -0.4418   -4.4885   -2.4317 O   0  0  0  0  0  0  0  0  0  0  0  0
    0.3079   -6.6549   -1.7879 C   0  0  0  0  0  0  0  0  0  0  0  0
    0.2648   -6.4915   -0.5800 O   0  0  0  0  0  0  0  0  0  0  0  0
    0.5515   -8.0290   -2.3674 C   0  0  0  0  0  0  0  0  0  0  0  0
    0.0322   -9.0328   -1.9123 O   0  0  0  0  0  0  0  0  0  0  0  0
  1  2  1  0  0  0  0
  2  3  2  0  0  0  0
  3  4  1  0  0  0  0
  3 53  1  0  0  0  0
  4  5  1  0  0  0  0
  5  6  1  1  0  0  0
  5 49  1  0  0  0  0
  6  7  1  0  0  0  0
  7  8  2  0  0  0  0
  7 12  1  0  0  0  0
  8  9  1  0  0  0  0
  8 26  1  0  0  0  0
  9 10  1  0  0  0  0
 10 11  2  0  0  0  0
 10 21  1  0  0  0  0
 11 12  1  0  0  0  0
 11 13  1  0  0  0  0
 13 14  1  0  0  0  0
 13 19  1  0  0  0  0
 14 15  1  0  0  0  0
 15 16  2  0  0  0  0
 15 17  1  0  0  0  0
 17 18  1  0  0  0  0
 18 19  1  0  0  0  0
 18 25  1  0  0  0  0
 19 20  2  0  0  0  0
 20 21  1  0  0  0  0
 20 22  1  0  0  0  0
 22 23  1  0  0  0  0
 22 24  1  0  0  0  0
 23 24  1  0  0  0  0
 26 27  2  0  0  0  0
 26 31  1  0  0  0  0
 27 28  1  0  0  0  0
 28 29  2  0  0  0  0
 29 30  1  0  0  0  0
 30 31  2  0  0  0  0
 30 35  1  0  0  0  0
 31 32  1  0  0  0  0
 32 33  2  0  0  0  0
 33 34  1  0  0  0  0
 33 39  1  0  0  0  0
 34 35  2  0  0  0  0
 34 36  1  0  0  0  0
 36 37  2  0  0  0  0
 37 38  1  0  0  0  0
 38 39  2  0  0  0  0
 38 43  1  0  0  0  0
 39 40  1  0  0  0  0
 40 41  2  0  0  0  0
 41 42  1  0  0  0  0
 42 43  2  0  0  0  0
 44 37  1  1  0  0  0
 44 45  1  0  0  0  0
 44 46  1  0  0  0  0
 44 47  1  0  0  0  0
 46 47  1  0  0  0  0
 47 48  2  0  0  0  0
 49 50  2  0  0  0  0
 49 51  1  0  0  0  0
 51 52  2  0  0  0  0
 51 53  1  0  0  0  0
 53 54  2  0  0  0  0
M  END
$$$$