
 OpenBabel09252006103D

 54 62  0  0  1  0  0  0  0  0999 V2000
   -1.9519   -1.7690   -3.0801 O   0  0  0  0  0  0  0  0  0  0  0  0
   -2.2353   -2.4430   -4.2311 C   0  0  0  0  0  0  0  0  0  0  0  0
   -2.4343   -1.9308   -5.4558 C   0  0  0  0  0  0  0  0  0  0  0  0
   -2.4219   -0.5131   -5.9385 C   0  0  0  0  0  0  0  0  0  0  0  0
   -3.2728   -0.1865   -7.0276 C   0  0  0  0  0  0  0  0  0  0  0  0
   -4.0961   -1.1749   -7.5181 O   0  0  0  0  0  0  0  0  0  0  0  0
   -5.2032   -0.7825   -8.3405 C   0  0  2  0  0  0  0  0  0  0  0  0
   -4.8883    0.3187   -9.3183 C   0  0  0  0  0  0  0  0  0  0  0  0
   -5.2746    0.3551  -10.4774 O   0  0  0  0  0  0  0  0  0  0  0  0
   -4.0645    1.4348   -8.7307 C   0  0  0  0  0  0  0  0  0  0  0  0
   -4.0712    2.5541   -9.2176 O   0  0  0  0  0  0  0  0  0  0  0  0
   -3.2446    1.0994   -7.5587 C   0  0  0  0  0  0  0  0  0  0  0  0
   -2.4354    2.0848   -6.9902 C   0  0  0  0  0  0  0  0  0  0  0  0
   -1.6165    1.7946   -5.8784 C   0  0  0  0  0  0  0  0  0  0  0  0
   -1.5729    0.4801   -5.3775 C   0  0  0  0  0  0  0  0  0  0  0  0
   -0.7469    0.1824   -4.3586 N   0  0  0  0  0  0  0  0  0  0  0  0
    0.0237    1.1463   -3.8344 C   0  0  0  0  0  0  0  0  0  0  0  0
    0.0222    2.4243   -4.1981 N   0  0  0  0  0  0  0  0  0  0  0  0
   -0.8137    2.7427   -5.2059 C   0  0  0  0  0  0  0  0  0  0  0  0
   -0.8412    4.1892   -5.5171 C   0  0  0  0  0  0  0  0  0  0  0  0
   -1.7050    5.0534   -4.9305 C   0  0  0  0  0  0  0  0  0  0  0  0
   -2.6306    4.6169   -3.9791 O   0  0  0  0  0  0  0  0  0  0  0  0
   -3.3801    5.5946   -3.2230 C   0  0  1  0  0  0  0  0  0  0  0  0
   -4.1797    6.3833   -4.1011 O   0  0  0  0  0  0  0  0  0  0  0  0
   -5.3048    6.9827   -3.5887 C   0  0  0  0  0  0  0  0  0  0  0  0
   -5.6351    8.2271   -3.9491 C   0  0  0  0  0  0  0  0  0  0  0  0
   -4.8911    9.0171   -4.7856 O   0  0  0  0  0  0  0  0  0  0  0  0
   -6.2251    6.2195   -2.7096 C   0  0  0  0  0  0  0  0  0  0  0  0
   -7.3269    6.5903   -2.3493 O   0  0  0  0  0  0  0  0  0  0  0  0
   -5.6266    4.9087   -2.2639 C   0  0  0  0  0  0  0  0  0  0  0  0
   -6.3225    3.9331   -2.0395 O   0  0  0  0  0  0  0  0  0  0  0  0
   -4.1309    4.8392   -2.1284 C   0  0  0  0  0  0  0  0  0  0  0  0
   -3.6180    4.2808   -1.1688 O   0  0  0  0  0  0  0  0  0  0  0  0
   -1.6895    6.5074   -5.3430 C   0  0  0  0  0  0  0  0  0  0  0  0
   -0.6598    6.8248   -6.3646 C   0  0  0  0  0  0  0  0  0  0  0  0
    0.1864    5.9086   -6.8550 C   0  0  0  0  0  0  0  0  0  0  0  0
    0.1186    4.5782   -6.4560 O   0  0  0  0  0  0  0  0  0  0  0  0
    1.1428    6.2525   -7.7796 N   0  0  0  0  0  0  0  0  0  0  0  0
    1.2629    7.5248   -8.3279 C   0  0  0  0  0  0  0  0  0  0  0  0
    2.3091    7.6992   -9.3607 C   0  0  0  0  0  0  0  0  0  0  0  0
    2.6830    6.6337  -10.2499 O   0  0  0  0  0  0  0  0  0  0  0  0
    1.9765    7.7832  -10.7552 O   0  0  0  0  0  0  0  0  0  0  0  0
    0.4331    8.5041   -7.9165 C   0  0  0  0  0  0  0  0  0  0  0  0
   -0.5867    8.2177   -6.8870 C   0  0  0  0  0  0  0  0  0  0  0  0
   -1.4011    9.1254   -6.4566 N   0  0  0  0  0  0  0  0  0  0  0  0
   -1.3115   10.4053   -6.9741 C   0  0  0  0  0  0  0  0  0  0  0  0
   -2.0783   11.2532   -6.5376 O   0  0  0  0  0  0  0  0  0  0  0  0
   -0.4066   10.7720   -7.9511 N   0  0  0  0  0  0  0  0  0  0  0  0
    0.4117    9.8845   -8.4007 C   0  0  0  0  0  0  0  0  0  0  0  0
   -6.3949   -0.4282   -7.5087 C   0  0  1  0  0  0  0  0  0  0  0  0
   -6.2353    0.6779   -6.5866 O   0  0  0  0  0  0  0  0  0  0  0  0
   -7.6330   -0.4558   -8.2243 O   0  0  0  0  0  0  0  0  0  0  0  0
   -7.4998   -1.3423   -7.2189 C   0  0  0  0  0  0  0  0  0  0  0  0
   -8.1610   -1.4734   -6.2152 O   0  0  0  0  0  0  0  0  0  0  0  0
  1  2  1  0  0  0  0
  2  3  2  0  0  0  0
  3  4  1  0  0  0  0
  4  5  2  0  0  0  0
  4 15  1  0  0  0  0
  5  6  1  0  0  0  0
  5 12  1  0  0  0  0
  7  6  1  1  0  0  0
  7  8  1  0  0  0  0
  7 50  1  0  0  0  0
  8  9  2  0  0  0  0
  8 10  1  0  0  0  0
 10 11  2  0  0  0  0
 10 12  1  0  0  0  0
 12 13  2  0  0  0  0
 13 14  1  0  0  0  0
 14 15  2  0  0  0  0
 14 19  1  0  0  0  0
 15 16  1  0  0  0  0
 16 17  2  0  0  0  0
 17 18  1  0  0  0  0
 18 19  2  0  0  0  0
 19 20  1  0  0  0  0
 20 21  2  0  0  0  0
 20 37  1  0  0  0  0
 21 22  1  0  0  0  0
 21 34  1  0  0  0  0
 23 22  1  6  0  0  0
 23 24  1  0  0  0  0
 23 32  1  0  0  0  0
 24 25  1  0  0  0  0
 25 26  2  0  0  0  0
 25 28  1  0  0  0  0
 26 27  1  0  0  0  0
 28 29  2  0  0  0  0
 28 30  1  0  0  0  0
 30 31  2  0  0  0  0
 30 32  1  0  0  0  0
 32 33  2  0  0  0  0
 34 35  1  0  0  0  0
 35 36  2  0  0  0  0
 35 44  1  0  0  0  0
 36 37  1  0  0  0  0
 36 38  1  0  0  0  0
 38 39  1  0  0  0  0
 39 40  1  0  0  0  0
 39 43  2  0  0  0  0
 40 41  1  0  0  0  0
 40 42  1  0  0  0  0
 41 42  1  0  0  0  0
 43 44  1  0  0  0  0
 43 49  1  0  0  0  0
 44 45  2  0  0  0  0
 45 46  1  0  0  0  0
 46 47  2  0  0  0  0
 46 48  1  0  0  0  0
 48 49  2  0  0  0  0
 50 51  1  1  0  0  0
 50 52  1  0  0  0  0
 50 53  1  0  0  0  0
 52 53  1  0  0  0  0
 53 54  2  0  0  0  0
M  END
$$$$