
 OpenBabel11172005113D

 53 61  0  0  1  0  0  0  0  0999 V2000
    0.5205   -4.3825   -3.7219 O   0  0  0  0  0  0  0  0  0  0  0  0
    0.8185   -3.1343   -3.2380 C   0  0  0  0  0  0  0  0  0  0  0  0
    1.3052   -2.9511   -2.0057 C   0  0  0  0  0  0  0  0  0  0  0  0
    1.4724   -4.0346   -1.1586 O   0  0  0  0  0  0  0  0  0  0  0  0
    2.6152   -3.9612   -0.3032 C   0  0  2  0  0  0  0  0  0  0  0  0
    2.7911   -5.1756    0.4451 O   0  0  0  0  0  0  0  0  0  0  0  0
    2.9567   -6.3473   -0.2916 C   0  0  0  0  0  0  0  0  0  0  0  0
    2.5627   -7.5480    0.1914 C   0  0  0  0  0  0  0  0  0  0  0  0
    2.6996   -8.7396   -0.5324 O   0  0  0  0  0  0  0  0  0  0  0  0
    3.3029   -8.7164   -1.7881 C   0  0  0  0  0  0  0  0  0  0  0  0
    3.7881   -7.5821   -2.3174 C   0  0  0  0  0  0  0  0  0  0  0  0
    3.6602   -6.2662   -1.6262 C   0  0  0  0  0  0  0  0  0  0  0  0
    4.4777   -7.5806   -3.6593 C   0  0  3  0  0  0  0  0  0  0  0  0
    5.8084   -7.1213   -3.4356 O   0  0  0  0  0  0  0  0  0  0  0  0
    6.7317   -7.1906   -4.4238 C   0  0  0  0  0  0  0  0  0  0  0  0
    7.7803   -6.5639   -4.3509 O   0  0  0  0  0  0  0  0  0  0  0  0
    6.4677   -8.0099   -5.4690 O   0  0  0  0  0  0  0  0  0  0  0  0
    5.2915   -8.8049   -5.5873 C   0  0  3  0  0  0  0  0  0  0  0  0
    4.5584   -8.9134   -4.3066 C   0  0  0  0  0  0  0  0  0  0  0  0
    4.0325  -10.0191   -3.7315 C   0  0  0  0  0  0  0  0  0  0  0  0
    3.4223   -9.9001   -2.4840 N   0  0  0  0  0  0  0  0  0  0  0  0
    4.0780  -11.3746   -4.3286 C   0  0  0  0  0  0  0  0  0  0  0  0
    2.8829  -12.1109   -4.6337 O   0  0  0  0  0  0  0  0  0  0  0  0
    3.7199  -11.6249   -5.6995 O   0  0  0  0  0  0  0  0  0  0  0  0
    4.4368   -8.1960   -6.5405 O   0  0  0  0  0  0  0  0  0  0  0  0
    1.9868   -7.7399    1.5462 C   0  0  0  0  0  0  0  0  0  0  0  0
    2.8116   -8.0221    2.6362 C   0  0  0  0  0  0  0  0  0  0  0  0
    4.1692   -8.1389    2.5484 O   0  0  0  0  0  0  0  0  0  0  0  0
    2.3354   -8.2365    3.8755 N   0  0  0  0  0  0  0  0  0  0  0  0
    0.9920   -8.2065    4.1018 N   0  0  0  0  0  0  0  0  0  0  0  0
    0.1393   -7.9390    3.1104 C   0  0  0  0  0  0  0  0  0  0  0  0
    0.5885   -7.6783    1.7949 C   0  0  0  0  0  0  0  0  0  0  0  0
   -0.3885   -7.3877    0.8121 C   0  0  0  0  0  0  0  0  0  0  0  0
   -1.7531   -7.3847    1.1335 C   0  0  0  0  0  0  0  0  0  0  0  0
   -2.1769   -7.6490    2.4293 C   0  0  0  0  0  0  0  0  0  0  0  0
   -1.2208   -7.9298    3.4013 C   0  0  0  0  0  0  0  0  0  0  0  0
   -3.4786   -7.6621    2.8512 O   0  0  0  0  0  0  0  0  0  0  0  0
   -4.4662   -7.1413    1.9521 C   0  0  2  0  0  0  0  0  0  0  0  0
   -4.1832   -7.4239    0.4981 C   0  0  0  0  0  0  0  0  0  0  0  0
   -4.9942   -7.8647   -0.3030 O   0  0  0  0  0  0  0  0  0  0  0  0
   -2.7590   -7.1346    0.0954 C   0  0  0  0  0  0  0  0  0  0  0  0
   -2.4774   -6.7444   -1.0246 O   0  0  0  0  0  0  0  0  0  0  0  0
   -4.6723   -5.6781    2.1844 C   0  0  1  0  0  0  0  0  0  0  0  0
   -3.5184   -4.8233    1.9995 O   0  0  0  0  0  0  0  0  0  0  0  0
   -5.9025   -5.1702    1.6619 O   0  0  0  0  0  0  0  0  0  0  0  0
   -5.7511   -5.1194    3.0021 C   0  0  0  0  0  0  0  0  0  0  0  0
   -5.7599   -4.1644    3.7388 O   0  0  0  0  0  0  0  0  0  0  0  0
    2.3991   -2.7676    0.6110 C   0  0  0  0  0  0  0  0  0  0  0  0
    2.3326   -2.7715    1.8293 O   0  0  0  0  0  0  0  0  0  0  0  0
    2.2363   -1.4902   -0.1753 C   0  0  0  0  0  0  0  0  0  0  0  0
    2.6417   -0.4314    0.2768 O   0  0  0  0  0  0  0  0  0  0  0  0
    1.6350   -1.5643   -1.5662 C   0  0  0  0  0  0  0  0  0  0  0  0
    1.4810   -0.5710   -2.2575 O   0  0  0  0  0  0  0  0  0  0  0  0
  1  2  1  0  0  0  0
  2  3  2  0  0  0  0
  3  4  1  0  0  0  0
  3 52  1  0  0  0  0
  4  5  1  0  0  0  0
  5  6  1  1  0  0  0
  5 48  1  0  0  0  0
  6  7  1  0  0  0  0
  7  8  2  0  0  0  0
  7 12  1  0  0  0  0
  8  9  1  0  0  0  0
  8 26  1  0  0  0  0
  9 10  1  0  0  0  0
 10 11  2  0  0  0  0
 10 21  1  0  0  0  0
 11 12  1  0  0  0  0
 11 13  1  0  0  0  0
 13 14  1  0  0  0  0
 13 19  1  0  0  0  0
 14 15  1  0  0  0  0
 15 16  2  0  0  0  0
 15 17  1  0  0  0  0
 17 18  1  0  0  0  0
 18 19  1  0  0  0  0
 18 25  1  0  0  0  0
 19 20  2  0  0  0  0
 20 21  1  0  0  0  0
 20 22  1  0  0  0  0
 22 23  1  0  0  0  0
 22 24  1  0  0  0  0
 23 24  1  0  0  0  0
 26 27  2  0  0  0  0
 26 32  1  0  0  0  0
 27 28  1  0  0  0  0
 27 29  1  0  0  0  0
 29 30  2  0  0  0  0
 30 31  1  0  0  0  0
 31 32  2  0  0  0  0
 31 36  1  0  0  0  0
 32 33  1  0  0  0  0
 33 34  2  0  0  0  0
 34 35  1  0  0  0  0
 34 41  1  0  0  0  0
 35 36  2  0  0  0  0
 35 37  1  0  0  0  0
 38 37  1  1  0  0  0
 38 39  1  0  0  0  0
 38 43  1  0  0  0  0
 39 40  2  0  0  0  0
 39 41  1  0  0  0  0
 41 42  2  0  0  0  0
 43 44  1  6  0  0  0
 43 45  1  0  0  0  0
 43 46  1  0  0  0  0
 45 46  1  0  0  0  0
 46 47  2  0  0  0  0
 48 49  2  0  0  0  0
 48 50  1  0  0  0  0
 50 51  2  0  0  0  0
 50 52  1  0  0  0  0
 52 53  2  0  0  0  0
M  END
$$$$