
 OpenBabel09222017433D

 53 61  0  0  1  0  0  0  0  0999 V2000
    2.3122   -6.8364    3.3916 O   0  0  0  0  0  0  0  0  0  0  0  0
    1.3688   -5.8463    3.3122 C   0  0  0  0  0  0  0  0  0  0  0  0
    1.3240   -4.9548    2.3138 C   0  0  0  0  0  0  0  0  0  0  0  0
    2.2679   -4.9461    1.3033 O   0  0  0  0  0  0  0  0  0  0  0  0
    1.7941   -4.5045    0.0352 C   0  0  2  0  0  0  0  0  0  0  0  0
    2.8882   -4.3777   -0.8863 O   0  0  0  0  0  0  0  0  0  0  0  0
    3.2545   -5.4575   -1.6749 C   0  0  0  0  0  0  0  0  0  0  0  0
    3.8021   -5.2689   -2.8873 C   0  0  0  0  0  0  0  0  0  0  0  0
    4.1906   -6.3032   -3.7151 O   0  0  0  0  0  0  0  0  0  0  0  0
    3.8205   -7.5911   -3.4063 C   0  0  0  0  0  0  0  0  0  0  0  0
    3.2502   -7.9549   -2.1846 C   0  0  0  0  0  0  0  0  0  0  0  0
    3.0742   -6.8581   -1.1660 C   0  0  0  0  0  0  0  0  0  0  0  0
    2.8951   -9.3193   -2.0059 C   0  0  0  0  0  0  0  0  0  0  0  0
    2.2841   -9.8909   -0.8248 N   0  0  0  0  0  0  0  0  0  0  0  0
    1.8743   -9.0772    0.3065 C   0  0  0  0  0  0  0  0  0  0  0  0
    2.0919  -11.2660   -0.6399 C   0  0  0  0  0  0  0  0  0  0  0  0
    1.5853  -11.7289    0.3847 O   0  0  0  0  0  0  0  0  0  0  0  0
    2.5375  -12.1010   -1.6377 N   0  0  0  0  0  0  0  0  0  0  0  0
    2.6770  -11.6261   -2.9859 C   0  0  0  0  0  0  0  0  0  0  0  0
    3.1281  -10.2032   -3.0796 C   0  0  0  0  0  0  0  0  0  0  0  0
    3.6772   -9.7376   -4.2889 C   0  0  0  0  0  0  0  0  0  0  0  0
    4.0231   -8.4411   -4.4285 N   0  0  0  0  0  0  0  0  0  0  0  0
    3.8399  -10.6290   -5.5026 C   0  0  0  0  0  0  0  0  0  0  0  0
    4.9586  -10.3955   -6.3734 O   0  0  0  0  0  0  0  0  0  0  0  0
    4.9395  -11.5522   -5.5144 O   0  0  0  0  0  0  0  0  0  0  0  0
    2.3702  -13.5354   -1.4630 C   0  0  0  0  0  0  0  0  0  0  0  0
    4.0081   -3.9347   -3.4819 C   0  0  0  0  0  0  0  0  0  0  0  0
    5.2160   -3.3724   -3.2160 N   0  0  0  0  0  0  0  0  0  0  0  0
    5.4654   -2.1621   -3.7535 C   0  0  0  0  0  0  0  0  0  0  0  0
    4.5751   -1.4777   -4.5606 C   0  0  0  0  0  0  0  0  0  0  0  0
    3.3415   -2.0635   -4.8508 C   0  0  0  0  0  0  0  0  0  0  0  0
    3.0230   -3.3253   -4.2975 C   0  0  0  0  0  0  0  0  0  0  0  0
    1.7572   -3.8832   -4.5994 C   0  0  0  0  0  0  0  0  0  0  0  0
    0.8616   -3.2136   -5.4395 C   0  0  0  0  0  0  0  0  0  0  0  0
    1.2122   -2.0037   -6.0277 C   0  0  0  0  0  0  0  0  0  0  0  0
    2.4314   -1.4145   -5.7027 C   0  0  0  0  0  0  0  0  0  0  0  0
    0.4419   -1.3243   -6.9307 O   0  0  0  0  0  0  0  0  0  0  0  0
   -0.5850   -2.0909   -7.5820 C   0  0  2  0  0  0  0  0  0  0  0  0
   -1.3574   -2.9468   -6.6039 C   0  0  0  0  0  0  0  0  0  0  0  0
   -2.5754   -2.9827   -6.5134 O   0  0  0  0  0  0  0  0  0  0  0  0
   -0.4687   -3.7782   -5.7062 C   0  0  0  0  0  0  0  0  0  0  0  0
   -0.8341   -4.8474   -5.2468 O   0  0  0  0  0  0  0  0  0  0  0  0
   -0.0358   -2.8371   -8.7754 C   0  0  1  0  0  0  0  0  0  0  0  0
    0.5742   -2.0376   -9.8087 O   0  0  0  0  0  0  0  0  0  0  0  0
    0.6637   -4.0609   -8.5144 O   0  0  0  0  0  0  0  0  0  0  0  0
   -0.5140   -4.1578   -9.1553 C   0  0  0  0  0  0  0  0  0  0  0  0
   -1.5128   -4.7912   -8.8555 O   0  0  0  0  0  0  0  0  0  0  0  0
    1.0985   -3.1472    0.0466 C   0  0  0  0  0  0  0  0  0  0  0  0
    0.9667   -2.4058   -0.9186 O   0  0  0  0  0  0  0  0  0  0  0  0
    0.4294   -2.8245    1.3564 C   0  0  0  0  0  0  0  0  0  0  0  0
    0.0319   -1.6949    1.5947 O   0  0  0  0  0  0  0  0  0  0  0  0
    0.2620   -3.9179    2.3800 C   0  0  0  0  0  0  0  0  0  0  0  0
   -0.6792   -3.9365    3.1551 O   0  0  0  0  0  0  0  0  0  0  0  0
  1  2  1  0  0  0  0
  2  3  2  0  0  0  0
  3  4  1  0  0  0  0
  3 52  1  0  0  0  0
  4  5  1  0  0  0  0
  5  6  1  6  0  0  0
  5 48  1  0  0  0  0
  6  7  1  0  0  0  0
  7  8  2  0  0  0  0
  7 12  1  0  0  0  0
  8  9  1  0  0  0  0
  8 27  1  0  0  0  0
  9 10  1  0  0  0  0
 10 11  2  0  0  0  0
 10 22  1  0  0  0  0
 11 12  1  0  0  0  0
 11 13  1  0  0  0  0
 13 14  1  0  0  0  0
 13 20  2  0  0  0  0
 14 15  1  0  0  0  0
 14 16  1  0  0  0  0
 16 17  2  0  0  0  0
 16 18  1  0  0  0  0
 18 19  1  0  0  0  0
 18 26  1  0  0  0  0
 19 20  1  0  0  0  0
 20 21  1  0  0  0  0
 21 22  2  0  0  0  0
 21 23  1  0  0  0  0
 23 24  1  0  0  0  0
 23 25  1  0  0  0  0
 24 25  1  0  0  0  0
 27 28  2  0  0  0  0
 27 32  1  0  0  0  0
 28 29  1  0  0  0  0
 29 30  2  0  0  0  0
 30 31  1  0  0  0  0
 31 32  2  0  0  0  0
 31 36  1  0  0  0  0
 32 33  1  0  0  0  0
 33 34  2  0  0  0  0
 34 35  1  0  0  0  0
 34 41  1  0  0  0  0
 35 36  2  0  0  0  0
 35 37  1  0  0  0  0
 38 37  1  1  0  0  0
 38 39  1  0  0  0  0
 38 43  1  0  0  0  0
 39 40  2  0  0  0  0
 39 41  1  0  0  0  0
 41 42  2  0  0  0  0
 43 44  1  6  0  0  0
 43 45  1  0  0  0  0
 43 46  1  0  0  0  0
 45 46  1  0  0  0  0
 46 47  2  0  0  0  0
 48 49  2  0  0  0  0
 48 50  1  0  0  0  0
 50 51  2  0  0  0  0
 50 52  1  0  0  0  0
 52 53  2  0  0  0  0
M  END
$$$$