
 OpenBabel11152014313D

 53 61  0  0  1  0  0  0  0  0999 V2000
   -2.0286    0.4290   -5.4987 O   0  0  0  0  0  0  0  0  0  0  0  0
   -1.8369    0.7968   -4.1917 C   0  0  0  0  0  0  0  0  0  0  0  0
   -0.9596    0.1768   -3.3941 C   0  0  0  0  0  0  0  0  0  0  0  0
   -0.2404   -0.9094   -3.8565 O   0  0  0  0  0  0  0  0  0  0  0  0
    1.0940   -0.9877   -3.3566 C   0  0  2  0  0  0  0  0  0  0  0  0
    1.8071   -2.0547   -3.9849 O   0  0  0  0  0  0  0  0  0  0  0  0
    1.9736   -1.9443   -5.3631 C   0  0  0  0  0  0  0  0  0  0  0  0
    2.0543   -3.0424   -6.1428 C   0  0  0  0  0  0  0  0  0  0  0  0
    2.2396   -2.9922   -7.5190 O   0  0  0  0  0  0  0  0  0  0  0  0
    2.4519   -1.7660   -8.1261 C   0  0  0  0  0  0  0  0  0  0  0  0
    2.4528   -0.6122   -7.4372 C   0  0  0  0  0  0  0  0  0  0  0  0
    2.1664   -0.5739   -5.9702 C   0  0  0  0  0  0  0  0  0  0  0  0
    2.6972    0.7012   -8.1427 C   0  0  3  0  0  0  0  0  0  0  0  0
    3.8141    1.3309   -7.5120 O   0  0  0  0  0  0  0  0  0  0  0  0
    4.5488    2.2912   -8.1269 C   0  0  0  0  0  0  0  0  0  0  0  0
    5.4289    2.8941   -7.5255 O   0  0  0  0  0  0  0  0  0  0  0  0
    4.3034    2.5373   -9.4366 O   0  0  0  0  0  0  0  0  0  0  0  0
    3.2825    1.8849  -10.1766 C   0  0  3  0  0  0  0  0  0  0  0  0
    2.9716    0.5644   -9.5992 C   0  0  0  0  0  0  0  0  0  0  0  0
    2.9349   -0.6304  -10.2306 C   0  0  0  0  0  0  0  0  0  0  0  0
    2.6670   -1.7657   -9.4814 N   0  0  0  0  0  0  0  0  0  0  0  0
    3.1756   -0.8347  -11.6770 C   0  0  0  0  0  0  0  0  0  0  0  0
    2.2011   -1.4689  -12.5223 O   0  0  0  0  0  0  0  0  0  0  0  0
    2.4952   -0.0692  -12.6865 O   0  0  0  0  0  0  0  0  0  0  0  0
    2.1078    2.6765  -10.1517 O   0  0  0  0  0  0  0  0  0  0  0  0
    2.0227   -4.4084   -5.5971 C   0  0  0  0  0  0  0  0  0  0  0  0
    3.2435   -4.8986   -5.3001 N   0  0  0  0  0  0  0  0  0  0  0  0
    3.2711   -6.1223   -4.7711 C   0  0  0  0  0  0  0  0  0  0  0  0
    4.4742   -6.6319   -4.4719 F   0  0  0  0  0  0  0  0  0  0  0  0
    2.2045   -6.8949   -4.5264 N   0  0  0  0  0  0  0  0  0  0  0  0
    1.0074   -6.3987   -4.8397 C   0  0  0  0  0  0  0  0  0  0  0  0
    0.8331   -5.1283   -5.4065 C   0  0  0  0  0  0  0  0  0  0  0  0
   -0.4729   -4.6891   -5.7455 C   0  0  0  0  0  0  0  0  0  0  0  0
   -1.5778   -5.5109   -5.5031 C   0  0  0  0  0  0  0  0  0  0  0  0
   -1.4051   -6.7489   -4.9058 C   0  0  0  0  0  0  0  0  0  0  0  0
   -0.1146   -7.1835   -4.5962 C   0  0  0  0  0  0  0  0  0  0  0  0
   -2.4172   -7.6198   -4.6290 O   0  0  0  0  0  0  0  0  0  0  0  0
   -3.7295   -7.0619   -4.5077 C   0  0  2  0  0  0  0  0  0  0  0  0
   -4.0747   -5.9863   -5.5081 C   0  0  0  0  0  0  0  0  0  0  0  0
   -5.2187   -5.7420   -5.8675 O   0  0  0  0  0  0  0  0  0  0  0  0
   -2.9242   -5.0886   -5.9019 C   0  0  0  0  0  0  0  0  0  0  0  0
   -3.1237   -4.0444   -6.5012 O   0  0  0  0  0  0  0  0  0  0  0  0
   -3.9956   -6.6359   -3.0927 C   0  0  1  0  0  0  0  0  0  0  0  0
   -3.8133   -7.6574   -2.0819 O   0  0  0  0  0  0  0  0  0  0  0  0
   -3.5190   -5.3332   -2.7576 O   0  0  0  0  0  0  0  0  0  0  0  0
   -4.8561   -5.5175   -2.6995 C   0  0  0  0  0  0  0  0  0  0  0  0
   -5.5986   -5.3973   -1.7484 O   0  0  0  0  0  0  0  0  0  0  0  0
    1.0282   -1.1860   -1.8537 C   0  0  0  0  0  0  0  0  0  0  0  0
    1.5378   -2.0856   -1.2048 O   0  0  0  0  0  0  0  0  0  0  0  0
    0.2403   -0.0866   -1.1867 C   0  0  0  0  0  0  0  0  0  0  0  0
    0.4864    0.2339   -0.0347 O   0  0  0  0  0  0  0  0  0  0  0  0
   -0.8050    0.6627   -1.9929 C   0  0  0  0  0  0  0  0  0  0  0  0
   -1.4281    1.6014   -1.5251 O   0  0  0  0  0  0  0  0  0  0  0  0
  1  2  1  0  0  0  0
  2  3  2  0  0  0  0
  3  4  1  0  0  0  0
  3 52  1  0  0  0  0
  4  5  1  0  0  0  0
  5  6  1  6  0  0  0
  5 48  1  0  0  0  0
  6  7  1  0  0  0  0
  7  8  2  0  0  0  0
  7 12  1  0  0  0  0
  8  9  1  0  0  0  0
  8 26  1  0  0  0  0
  9 10  1  0  0  0  0
 10 11  2  0  0  0  0
 10 21  1  0  0  0  0
 11 12  1  0  0  0  0
 11 13  1  0  0  0  0
 13 14  1  0  0  0  0
 13 19  1  0  0  0  0
 14 15  1  0  0  0  0
 15 16  2  0  0  0  0
 15 17  1  0  0  0  0
 17 18  1  0  0  0  0
 18 19  1  0  0  0  0
 18 25  1  0  0  0  0
 19 20  2  0  0  0  0
 20 21  1  0  0  0  0
 20 22  1  0  0  0  0
 22 23  1  0  0  0  0
 22 24  1  0  0  0  0
 23 24  1  0  0  0  0
 26 27  2  0  0  0  0
 26 32  1  0  0  0  0
 27 28  1  0  0  0  0
 28 29  1  0  0  0  0
 28 30  2  0  0  0  0
 30 31  1  0  0  0  0
 31 32  2  0  0  0  0
 31 36  1  0  0  0  0
 32 33  1  0  0  0  0
 33 34  2  0  0  0  0
 34 35  1  0  0  0  0
 34 41  1  0  0  0  0
 35 36  2  0  0  0  0
 35 37  1  0  0  0  0
 38 37  1  1  0  0  0
 38 39  1  0  0  0  0
 38 43  1  0  0  0  0
 39 40  2  0  0  0  0
 39 41  1  0  0  0  0
 41 42  2  0  0  0  0
 43 44  1  1  0  0  0
 43 45  1  0  0  0  0
 43 46  1  0  0  0  0
 45 46  1  0  0  0  0
 46 47  2  0  0  0  0
 48 49  2  0  0  0  0
 48 50  1  0  0  0  0
 50 51  2  0  0  0  0
 50 52  1  0  0  0  0
 52 53  2  0  0  0  0
M  END
$$$$