
 OpenBabel11152012203D

 52 61  0  0  1  0  0  0  0  0999 V2000
   -1.8476    1.4684   -3.6515 O   0  0  0  0  0  0  0  0  0  0  0  0
   -1.1509    1.6665   -2.4872 C   0  0  0  0  0  0  0  0  0  0  0  0
   -0.0243    1.0045   -2.1992 C   0  0  0  0  0  0  0  0  0  0  0  0
    0.4775    0.0581   -3.0735 O   0  0  0  0  0  0  0  0  0  0  0  0
    1.8951   -0.0999   -3.0282 C   0  0  2  0  0  0  0  0  0  0  0  0
    2.3333   -1.0355   -4.0179 O   0  0  0  0  0  0  0  0  0  0  0  0
    2.1310   -0.6923   -5.3504 C   0  0  0  0  0  0  0  0  0  0  0  0
    2.0042   -1.6450   -6.3009 C   0  0  0  0  0  0  0  0  0  0  0  0
    1.9402   -1.3386   -7.6588 O   0  0  0  0  0  0  0  0  0  0  0  0
    2.1444   -0.0403   -8.0795 C   0  0  0  0  0  0  0  0  0  0  0  0
    2.2535    0.9864   -7.2213 C   0  0  0  0  0  0  0  0  0  0  0  0
    2.1861    0.7700   -5.7426 C   0  0  0  0  0  0  0  0  0  0  0  0
    2.4512    2.3946   -7.7398 C   0  0  3  0  0  0  0  0  0  0  0  0
    3.6122    2.9259   -7.1005 O   0  0  0  0  0  0  0  0  0  0  0  0
    4.2650    4.0122   -7.5797 C   0  0  0  0  0  0  0  0  0  0  0  0
    5.1401    4.5611   -6.9226 O   0  0  0  0  0  0  0  0  0  0  0  0
    3.9502    4.4410   -8.8250 O   0  0  0  0  0  0  0  0  0  0  0  0
    2.9372    3.8569   -9.6299 C   0  0  3  0  0  0  0  0  0  0  0  0
    2.6352    2.4745   -9.2159 C   0  0  0  0  0  0  0  0  0  0  0  0
    2.5352    1.3870  -10.0124 C   0  0  0  0  0  0  0  0  0  0  0  0
    2.2504    0.1651   -9.4295 N   0  0  0  0  0  0  0  0  0  0  0  0
    2.7119    1.3913  -11.4814 C   0  0  0  0  0  0  0  0  0  0  0  0
    1.9783    0.5014  -12.3402 O   0  0  0  0  0  0  0  0  0  0  0  0
    1.7082    1.9170  -12.3629 O   0  0  0  0  0  0  0  0  0  0  0  0
    1.7536    4.6264   -9.5162 O   0  0  0  0  0  0  0  0  0  0  0  0
    2.0217   -3.1045   -6.0587 C   0  0  0  0  0  0  0  0  0  0  0  0
    2.9397   -3.7540   -6.8106 N   0  0  0  0  0  0  0  0  0  0  0  0
    3.0576   -5.0477   -6.7144 N   0  0  0  0  0  0  0  0  0  0  0  0
    2.3141   -5.7553   -5.9044 N   0  0  0  0  0  0  0  0  0  0  0  0
    1.3865   -5.1638   -5.1473 C   0  0  0  0  0  0  0  0  0  0  0  0
    1.1679   -3.7897   -5.1909 C   0  0  0  0  0  0  0  0  0  0  0  0
    0.1387   -3.2384   -4.3903 C   0  0  0  0  0  0  0  0  0  0  0  0
   -0.5833   -4.0655   -3.5161 C   0  0  0  0  0  0  0  0  0  0  0  0
   -0.3558   -5.4485   -3.4502 C   0  0  0  0  0  0  0  0  0  0  0  0
    0.6203   -5.9566   -4.2931 C   0  0  0  0  0  0  0  0  0  0  0  0
   -1.0363   -6.2728   -2.5951 N   0  0  0  0  0  0  0  0  0  0  0  0
   -1.9544   -5.7661   -1.7102 C   0  0  0  0  0  0  0  0  0  0  0  0
   -2.1903   -4.4347   -1.7798 C   0  0  0  0  0  0  0  0  0  0  0  0
   -1.5332   -3.6230   -2.6492 C   0  0  0  0  0  0  0  0  0  0  0  0
   -2.1536   -2.5442   -2.2104 O   0  0  0  0  0  0  0  0  0  0  0  0
   -2.8729   -3.4350   -1.2596 O   0  0  0  0  0  0  0  0  0  0  0  0
   -2.6376   -6.6535   -0.7135 C   0  0  1  0  0  0  0  0  0  0  0  0
   -3.8870   -7.2740   -1.0881 O   0  0  0  0  0  0  0  0  0  0  0  0
   -1.8260   -7.4885    0.1370 O   0  0  0  0  0  0  0  0  0  0  0  0
   -2.4080   -6.4268    0.7099 C   0  0  0  0  0  0  0  0  0  0  0  0
   -1.9389   -5.5097    1.3469 O   0  0  0  0  0  0  0  0  0  0  0  0
    2.2849   -0.5877   -1.6435 C   0  0  0  0  0  0  0  0  0  0  0  0
    2.9370   -1.5835   -1.3732 O   0  0  0  0  0  0  0  0  0  0  0  0
    1.7784    0.3389   -0.5658 C   0  0  0  0  0  0  0  0  0  0  0  0
    2.2963    0.3486    0.5389 O   0  0  0  0  0  0  0  0  0  0  0  0
    0.6447    1.2903   -0.8979 C   0  0  0  0  0  0  0  0  0  0  0  0
    0.3495    2.2234   -0.1700 O   0  0  0  0  0  0  0  0  0  0  0  0
  1  2  1  0  0  0  0
  2  3  2  0  0  0  0
  3  4  1  0  0  0  0
  3 51  1  0  0  0  0
  4  5  1  0  0  0  0
  5  6  1  6  0  0  0
  5 47  1  0  0  0  0
  6  7  1  0  0  0  0
  7  8  2  0  0  0  0
  7 12  1  0  0  0  0
  8  9  1  0  0  0  0
  8 26  1  0  0  0  0
  9 10  1  0  0  0  0
 10 11  2  0  0  0  0
 10 21  1  0  0  0  0
 11 12  1  0  0  0  0
 11 13  1  0  0  0  0
 13 14  1  0  0  0  0
 13 19  1  0  0  0  0
 14 15  1  0  0  0  0
 15 16  2  0  0  0  0
 15 17  1  0  0  0  0
 17 18  1  0  0  0  0
 18 19  1  0  0  0  0
 18 25  1  0  0  0  0
 19 20  2  0  0  0  0
 20 21  1  0  0  0  0
 20 22  1  0  0  0  0
 22 23  1  0  0  0  0
 22 24  1  0  0  0  0
 23 24  1  0  0  0  0
 26 27  2  0  0  0  0
 26 31  1  0  0  0  0
 27 28  1  0  0  0  0
 28 29  2  0  0  0  0
 29 30  1  0  0  0  0
 30 31  2  0  0  0  0
 30 35  1  0  0  0  0
 31 32  1  0  0  0  0
 32 33  2  0  0  0  0
 33 34  1  0  0  0  0
 33 39  1  0  0  0  0
 34 35  2  0  0  0  0
 34 36  1  0  0  0  0
 36 37  2  0  0  0  0
 37 38  1  0  0  0  0
 38 39  2  0  0  0  0
 38 41  1  0  0  0  0
 39 40  1  0  0  0  0
 40 41  1  0  0  0  0
 42 37  1  6  0  0  0
 42 43  1  0  0  0  0
 42 44  1  0  0  0  0
 42 45  1  0  0  0  0
 44 45  1  0  0  0  0
 45 46  2  0  0  0  0
 47 48  2  0  0  0  0
 47 49  1  0  0  0  0
 49 50  2  0  0  0  0
 49 51  1  0  0  0  0
 51 52  2  0  0  0  0
M  END
$$$$