
 OpenBabel11262001443D

 54 62  0  0  1  0  0  0  0  0999 V2000
   -2.4053    4.4627   -2.3290 O   0  0  0  0  0  0  0  0  0  0  0  0
   -2.0473    3.3561   -1.5985 C   0  0  0  0  0  0  0  0  0  0  0  0
   -0.8958    2.7010   -1.7880 C   0  0  0  0  0  0  0  0  0  0  0  0
   -0.0233    3.0960   -2.7862 O   0  0  0  0  0  0  0  0  0  0  0  0
    1.3538    2.9604   -2.4409 C   0  0  2  0  0  0  0  0  0  0  0  0
    2.1669    3.3447   -3.6051 O   0  0  0  0  0  0  0  0  0  0  0  0
    2.0607    4.6715   -4.0318 C   0  0  0  0  0  0  0  0  0  0  0  0
    2.3655    5.0422   -5.2988 C   0  0  0  0  0  0  0  0  0  0  0  0
    2.4052    6.4045   -5.6972 O   0  0  0  0  0  0  0  0  0  0  0  0
    2.1851    7.4333   -4.7354 C   0  0  0  0  0  0  0  0  0  0  0  0
    1.8201    7.1116   -3.4778 C   0  0  0  0  0  0  0  0  0  0  0  0
    1.6305    5.7039   -3.0211 C   0  0  0  0  0  0  0  0  0  0  0  0
    1.5554    8.1443   -2.4078 C   0  0  3  0  0  0  0  0  0  0  0  0
    2.4713    7.9290   -1.3499 O   0  0  0  0  0  0  0  0  0  0  0  0
    2.4270    8.8407   -0.3513 C   0  0  0  0  0  0  0  0  0  0  0  0
    2.9296    8.5460    0.7856 N   0  0  0  0  0  0  0  0  0  0  0  0
    1.8652   10.0410   -0.5745 O   0  0  0  0  0  0  0  0  0  0  0  0
    1.5896   10.4762   -1.8294 C   0  0  0  0  0  0  0  0  0  0  0  0
    1.1417   11.5683   -2.0941 O   0  0  0  0  0  0  0  0  0  0  0  0
    1.8001    9.4991   -2.8991 C   0  0  0  0  0  0  0  0  0  0  0  0
    2.1661    9.7976   -4.1635 C   0  0  0  0  0  0  0  0  0  0  0  0
    2.3462    8.7719   -5.0970 O   0  3  0  0  0  0  0  0  0  0  0  0
    2.4688   11.1763   -4.6300 C   0  0  0  0  0  0  0  0  0  0  0  0
    3.8039   11.6935   -4.5470 O   0  0  0  0  0  0  0  0  0  0  0  0
    3.2346   11.3765   -5.8315 O   0  0  0  0  0  0  0  0  0  0  0  0
    2.6995    4.0224   -6.3558 C   0  0  0  0  0  0  0  0  0  0  0  0
    4.0409    3.6717   -6.5652 C   0  0  0  0  0  0  0  0  0  0  0  0
    4.3565    2.7107   -7.4402 N   0  3  0  0  0  0  0  0  0  0  0  0
    5.6543    2.4197   -7.6693 F   0  0  0  0  0  0  0  0  0  0  0  0
    3.4414    2.0112   -8.0735 N   0  0  0  0  0  0  0  0  0  0  0  0
    2.1399    2.2865   -7.8694 C   0  0  0  0  0  0  0  0  0  0  0  0
    1.7266    3.3422   -7.0591 N   0  3  0  0  0  0  0  0  0  0  0  0
    0.4014    3.6579   -7.0049 C   0  0  0  0  0  0  0  0  0  0  0  0
   -0.5592    2.8813   -7.6399 C   0  0  0  0  0  0  0  0  0  0  0  0
   -1.9628    3.2647   -7.5759 C   0  0  0  0  0  0  0  0  0  0  0  0
   -2.2321    4.3869   -7.1794 O   0  0  0  0  0  0  0  0  0  0  0  0
   -2.9789    2.2404   -8.0398 C   0  0  0  0  0  0  0  0  0  0  0  0
   -4.1382    2.5653   -8.2321 O   0  0  0  0  0  0  0  0  0  0  0  0
   -2.4049    0.8467   -8.1995 C   0  0  1  0  0  0  0  0  0  0  0  0
   -1.1105    0.8760   -8.8573 O   0  0  0  0  0  0  0  0  0  0  0  0
   -0.1954    1.7491   -8.3271 C   0  0  0  0  0  0  0  0  0  0  0  0
    1.1643    1.4568   -8.4815 C   0  0  0  0  0  0  0  0  0  0  0  0
    1.5216    0.4562   -9.4113 N   0  0  0  0  0  0  0  0  0  0  0  0
   -2.3085    0.1387   -6.8695 C   0  0  1  0  0  0  0  0  0  0  0  0
   -1.4900    0.7664   -5.8504 O   0  0  0  0  0  0  0  0  0  0  0  0
   -3.5320   -0.4111   -6.3883 O   0  0  0  0  0  0  0  0  0  0  0  0
   -2.5158   -1.3596   -6.7251 C   0  0  3  0  0  0  0  0  0  0  0  0
   -1.8481   -1.9525   -5.5975 O   0  0  0  0  0  0  0  0  0  0  0  0
    1.6638    1.5210   -2.0338 C   0  0  3  0  0  0  0  0  0  0  0  0
    0.8787    1.1476   -0.7872 C   0  0  3  0  0  0  0  0  0  0  0  0
   -0.5717    1.5637   -0.8628 C   0  0  0  0  0  0  0  0  0  0  0  0
   -1.4297    1.0968   -0.1188 O   0  0  0  0  0  0  0  0  0  0  0  0
    1.0469   -0.1820   -0.5479 F   0  0  0  0  0  0  0  0  0  0  0  0
    1.3203    0.7142   -3.0822 F   0  0  0  0  0  0  0  0  0  0  0  0
  1  2  1  0  0  0  0
  2  3  2  0  0  0  0
  3  4  1  0  0  0  0
  3 51  1  0  0  0  0
  4  5  1  0  0  0  0
  5  6  1  6  0  0  0
  5 49  1  0  0  0  0
  6  7  1  0  0  0  0
  7  8  2  0  0  0  0
  7 12  1  0  0  0  0
  8  9  1  0  0  0  0
  8 26  1  0  0  0  0
  9 10  1  0  0  0  0
 10 11  2  0  0  0  0
 10 22  1  0  0  0  0
 11 12  1  0  0  0  0
 11 13  1  0  0  0  0
 13 14  1  0  0  0  0
 13 20  1  0  0  0  0
 14 15  1  0  0  0  0
 15 16  2  0  0  0  0
 15 17  1  0  0  0  0
 17 18  1  0  0  0  0
 18 19  2  0  0  0  0
 18 20  1  0  0  0  0
 20 21  2  0  0  0  0
 21 22  1  0  0  0  0
 21 23  1  0  0  0  0
 23 24  1  0  0  0  0
 23 25  1  0  0  0  0
 24 25  1  0  0  0  0
 26 27  2  0  0  0  0
 26 32  1  0  0  0  0
 27 28  1  0  0  0  0
 28 29  1  0  0  0  0
 28 30  2  0  0  0  0
 30 31  1  0  0  0  0
 31 32  2  0  0  0  0
 31 42  1  0  0  0  0
 32 33  1  0  0  0  0
 33 34  2  0  0  0  0
 34 35  1  0  0  0  0
 34 41  1  0  0  0  0
 35 36  2  0  0  0  0
 35 37  1  0  0  0  0
 37 38  2  0  0  0  0
 39 37  1  1  0  0  0
 39 40  1  0  0  0  0
 39 44  1  0  0  0  0
 40 41  1  0  0  0  0
 41 42  2  0  0  0  0
 42 43  1  0  0  0  0
 44 45  1  1  0  0  0
 44 46  1  0  0  0  0
 44 47  1  0  0  0  0
 46 47  1  0  0  0  0
 47 48  1  0  0  0  0
 49 50  1  0  0  0  0
 49 54  1  0  0  0  0
 50 51  1  0  0  0  0
 50 53  1  0  0  0  0
 51 52  2  0  0  0  0
M  CHG  3  22   1  28   1  32   1
M  END
$$$$