
 OpenBabel11232002553D

 53 62  0  0  1  0  0  0  0  0999 V2000
   -6.7554  -15.9606   10.3161 O   0  0  0  0  0  0  0  0  0  0  0  0
   -6.9168  -14.9752   11.2555 C   0  0  0  0  0  0  0  0  0  0  0  0
   -6.5494  -13.7017   11.0645 C   0  0  0  0  0  0  0  0  0  0  0  0
   -5.9871  -13.2653    9.8741 O   0  0  0  0  0  0  0  0  0  0  0  0
   -6.2867  -11.8948    9.6053 C   0  0  2  0  0  0  0  0  0  0  0  0
   -5.7675  -11.4837    8.3355 O   0  0  0  0  0  0  0  0  0  0  0  0
   -6.5251  -11.7647    7.2142 C   0  0  0  0  0  0  0  0  0  0  0  0
   -6.2607  -11.1284    6.0554 C   0  0  0  0  0  0  0  0  0  0  0  0
   -6.8589  -11.4719    4.8492 O   0  0  0  0  0  0  0  0  0  0  0  0
   -7.6806  -12.5911    4.8048 C   0  0  0  0  0  0  0  0  0  0  0  0
   -8.0270  -13.2705    5.9117 C   0  0  0  0  0  0  0  0  0  0  0  0
   -7.5413  -12.8802    7.2661 C   0  0  0  0  0  0  0  0  0  0  0  0
   -8.8535  -14.5255    5.8187 C   0  0  3  0  0  0  0  0  0  0  0  0
  -10.1197  -14.2982    6.4889 N   0  0  0  0  0  0  0  0  0  0  0  0
  -11.0569  -15.2767    6.4228 C   0  0  0  0  0  0  0  0  0  0  0  0
  -11.9397  -15.4320    7.3411 N   0  0  0  0  0  0  0  0  0  0  0  0
  -11.0732  -16.0333    5.3063 N   0  0  0  0  0  0  0  0  0  0  0  0
   -9.9619  -16.2162    4.4093 C   0  0  0  0  0  0  0  0  0  0  0  0
   -9.1725  -14.9479    4.4169 C   0  0  0  0  0  0  0  0  0  0  0  0
   -8.7939  -14.2086    3.3514 C   0  0  0  0  0  0  0  0  0  0  0  0
   -8.0973  -13.0213    3.5716 N   0  0  0  0  0  0  0  0  0  0  0  0
   -9.0372  -14.5972    1.9543 C   0  0  3  0  0  0  0  0  0  0  0  0
   -8.0845  -15.4715    1.3608 N   0  0  0  0  0  0  0  0  0  0  0  0
   -8.0582  -14.2909    0.9694 N   0  0  0  0  0  0  0  0  0  0  0  0
   -5.1563  -10.1569    5.9347 C   0  0  0  0  0  0  0  0  0  0  0  0
   -4.0300  -10.6005    5.2496 C   0  0  0  0  0  0  0  0  0  0  0  0
   -2.9376   -9.8389    5.1685 N   0  3  0  0  0  0  0  0  0  0  0  0
   -1.8588  -10.3085    4.5142 F   0  0  0  0  0  0  0  0  0  0  0  0
   -2.8614   -8.6463    5.7250 N   0  0  0  0  0  0  0  0  0  0  0  0
   -3.9085   -8.1622    6.4002 C   0  0  0  0  0  0  0  0  0  0  0  0
   -5.1143   -8.8771    6.5324 C   0  0  0  0  0  0  0  0  0  0  0  0
   -6.1819   -8.2720    7.2488 C   0  0  0  0  0  0  0  0  0  0  0  0
   -6.0320   -7.0091    7.8463 C   0  0  0  0  0  0  0  0  0  0  0  0
   -4.8286   -6.3335    7.7402 C   0  0  0  0  0  0  0  0  0  0  0  0
   -3.7974   -6.9093    7.0010 C   0  0  0  0  0  0  0  0  0  0  0  0
   -2.6462   -6.2312    6.8631 F   0  0  0  0  0  0  0  0  0  0  0  0
   -4.6020   -5.1008    8.2903 O   0  0  0  0  0  0  0  0  0  0  0  0
   -5.4741   -4.7561    9.3910 C   0  0  1  0  0  0  0  0  0  0  0  0
   -6.9051   -5.0163    9.1874 C   0  0  0  0  0  0  0  0  0  0  0  0
   -7.7923   -4.2342    9.4755 O   0  0  0  0  0  0  0  0  0  0  0  0
   -7.1526   -6.3753    8.5616 C   0  0  0  0  0  0  0  0  0  0  0  0
   -8.2381   -6.9285    8.6323 O   0  0  0  0  0  0  0  0  0  0  0  0
   -4.9968   -5.0152   10.6863 O   0  0  0  0  0  0  0  0  0  0  0  0
   -5.0939   -3.6097   10.2763 C   0  0  1  0  0  0  0  0  0  0  0  0
   -3.8765   -2.9908    9.6824 O   0  0  0  0  0  0  0  0  0  0  0  0
   -4.0561   -2.9138   10.9756 C   0  0  0  0  0  0  0  0  0  0  0  0
   -4.0354   -1.9857   11.7593 O   0  0  0  0  0  0  0  0  0  0  0  0
   -5.6096  -11.0120   10.6339 C   0  0  0  0  0  0  0  0  0  0  0  0
   -4.9445  -10.0129   10.3950 O   0  0  0  0  0  0  0  0  0  0  0  0
   -5.8907  -11.4908   12.0366 C   0  0  0  0  0  0  0  0  0  0  0  0
   -5.4309  -10.9053   12.9999 O   0  0  0  0  0  0  0  0  0  0  0  0
   -6.7355  -12.7438   12.1922 C   0  0  0  0  0  0  0  0  0  0  0  0
   -7.5331  -12.8861   13.0992 O   0  0  0  0  0  0  0  0  0  0  0  0
  1  2  1  0  0  0  0
  2  3  2  0  0  0  0
  3  4  1  0  0  0  0
  3 52  1  0  0  0  0
  4  5  1  0  0  0  0
  5  6  1  6  0  0  0
  5 48  1  0  0  0  0
  6  7  1  0  0  0  0
  7  8  2  0  0  0  0
  7 12  1  0  0  0  0
  8  9  1  0  0  0  0
  8 25  1  0  0  0  0
  9 10  1  0  0  0  0
 10 11  2  0  0  0  0
 10 21  1  0  0  0  0
 11 12  1  0  0  0  0
 11 13  1  0  0  0  0
 13 14  1  0  0  0  0
 13 19  1  0  0  0  0
 14 15  1  0  0  0  0
 15 16  2  0  0  0  0
 15 17  1  0  0  0  0
 17 18  1  0  0  0  0
 18 19  1  0  0  0  0
 19 20  2  0  0  0  0
 20 21  1  0  0  0  0
 20 22  1  0  0  0  0
 22 23  1  0  0  0  0
 22 24  1  0  0  0  0
 23 24  2  0  0  0  0
 25 26  2  0  0  0  0
 25 31  1  0  0  0  0
 26 27  1  0  0  0  0
 27 28  1  0  0  0  0
 27 29  2  0  0  0  0
 29 30  1  0  0  0  0
 30 31  2  0  0  0  0
 30 35  1  0  0  0  0
 31 32  1  0  0  0  0
 32 33  2  0  0  0  0
 33 34  1  0  0  0  0
 33 41  1  0  0  0  0
 34 35  2  0  0  0  0
 34 37  1  0  0  0  0
 35 36  1  0  0  0  0
 38 37  1  6  0  0  0
 38 39  1  0  0  0  0
 38 43  1  0  0  0  0
 38 44  1  0  0  0  0
 39 40  2  0  0  0  0
 39 41  1  0  0  0  0
 41 42  2  0  0  0  0
 44 43  1  1  0  0  0
 44 45  1  0  0  0  0
 44 46  1  0  0  0  0
 45 46  1  0  0  0  0
 46 47  2  0  0  0  0
 48 49  2  0  0  0  0
 48 50  1  0  0  0  0
 50 51  2  0  0  0  0
 50 52  1  0  0  0  0
 52 53  2  0  0  0  0
M  CHG  1  27   1
M  END
$$$$