
 OpenBabel11222000333D

 55 63  0  0  1  0  0  0  0  0999 V2000
   -0.9220   -0.9875   -4.8320 O   0  0  0  0  0  0  0  0  0  0  0  0
   -0.8749   -0.6328   -3.5076 C   0  0  0  0  0  0  0  0  0  0  0  0
   -0.3430   -1.4162   -2.5621 C   0  0  0  0  0  0  0  0  0  0  0  0
    0.1437   -2.6803   -2.8568 O   0  0  0  0  0  0  0  0  0  0  0  0
    1.4527   -2.8808   -2.3371 C   0  0  2  0  0  0  0  0  0  0  0  0
    1.9219   -4.2199   -2.6307 O   0  0  0  0  0  0  0  0  0  0  0  0
    2.0263   -4.6513   -3.9403 C   0  0  0  0  0  0  0  0  0  0  0  0
    1.8972   -5.9645   -4.2259 C   0  0  0  0  0  0  0  0  0  0  0  0
    1.9776   -6.4714   -5.5212 O   0  0  0  0  0  0  0  0  0  0  0  0
    2.2837   -5.6157   -6.5806 C   0  0  0  0  0  0  0  0  0  0  0  0
    2.5089   -4.3020   -6.3830 C   0  0  0  0  0  0  0  0  0  0  0  0
    2.3850   -3.6602   -5.0232 C   0  0  0  0  0  0  0  0  0  0  0  0
    2.8654   -3.3825   -7.5232 C   0  0  3  0  0  0  0  0  0  0  0  0
    4.1825   -2.9081   -7.3073 O   0  0  0  0  0  0  0  0  0  0  0  0
    4.6884   -2.0686   -8.2549 C   0  0  0  0  0  0  0  0  0  0  0  0
    5.6965   -1.4122   -8.0608 O   0  0  0  0  0  0  0  0  0  0  0  0
    3.9677   -1.9916   -9.4013 O   0  0  0  0  0  0  0  0  0  0  0  0
    3.2866   -3.1356   -9.9012 C   0  0  3  0  0  0  0  0  0  0  0  0
    2.9114   -4.0925   -8.8249 C   0  0  0  0  0  0  0  0  0  0  0  0
    2.6623   -5.4143   -8.9536 C   0  0  0  0  0  0  0  0  0  0  0  0
    2.3484   -6.1729   -7.8370 O   0  3  0  0  0  0  0  0  0  0  0  0
    2.6595   -6.1567  -10.2393 C   0  0  0  0  0  0  0  0  0  0  0  0
    2.3829   -7.5718  -10.2486 O   0  0  0  0  0  0  0  0  0  0  0  0
    1.4323   -6.6430  -10.8003 O   0  0  0  0  0  0  0  0  0  0  0  0
    2.0577   -2.7231  -10.4624 O   0  0  0  0  0  0  0  0  0  0  0  0
    1.6477   -6.9921   -3.1847 C   0  0  0  0  0  0  0  0  0  0  0  0
    0.3316   -7.2842   -2.8510 C   0  0  0  0  0  0  0  0  0  0  0  0
    0.0513   -8.2028   -1.9221 N   0  3  0  0  0  0  0  0  0  0  0  0
   -1.2362   -8.4824   -1.6429 F   0  0  0  0  0  0  0  0  0  0  0  0
    0.9849   -8.8696   -1.2787 N   0  0  0  0  0  0  0  0  0  0  0  0
    2.2800   -8.6417   -1.5293 C   0  0  0  0  0  0  0  0  0  0  0  0
    2.6691   -7.6872   -2.4956 C   0  0  0  0  0  0  0  0  0  0  0  0
    4.0476   -7.4790   -2.7177 C   0  0  0  0  0  0  0  0  0  0  0  0
    5.0136   -8.1925   -1.9939 C   0  0  0  0  0  0  0  0  0  0  0  0
    6.4369   -7.9368   -2.2331 C   0  0  0  0  0  0  0  0  0  0  0  0
    6.8027   -7.1344   -3.0756 O   0  0  0  0  0  0  0  0  0  0  0  0
    7.4013   -8.7219   -1.3805 C   0  0  0  0  0  0  0  0  0  0  0  0
    8.4668   -8.2321   -1.0426 O   0  0  0  0  0  0  0  0  0  0  0  0
    6.8706  -10.0701   -0.9568 C   0  0  1  0  0  0  0  0  0  0  0  0
    5.5422   -9.9521   -0.4029 O   0  0  0  0  0  0  0  0  0  0  0  0
    4.6406   -9.1558   -1.0665 C   0  0  0  0  0  0  0  0  0  0  0  0
    3.2698   -9.3696   -0.8346 C   0  0  0  0  0  0  0  0  0  0  0  0
    2.8568  -10.3959    0.0917 C   0  0  0  0  0  0  0  0  0  0  0  0
    2.3970  -11.4801    1.0008 P   0  0  0  0  0  0  0  0  0  0  0  0
    6.9643  -11.1136   -2.0469 C   0  0  1  0  0  0  0  0  0  0  0  0
    8.2783  -11.3959   -2.5591 O   0  0  0  0  0  0  0  0  0  0  0  0
    6.1460  -12.2847   -1.8569 O   0  0  0  0  0  0  0  0  0  0  0  0
    5.8387  -11.4949   -2.8986 C   0  0  0  0  0  0  0  0  0  0  0  0
    4.8185  -10.9398   -3.2243 O   0  0  0  0  0  0  0  0  0  0  0  0
    1.4746   -2.7937   -0.8155 C   0  0  0  0  0  0  0  0  0  0  0  0
    2.1492   -3.5134   -0.0901 O   0  0  0  0  0  0  0  0  0  0  0  0
    0.5437   -1.7513   -0.2378 C   0  0  0  0  0  0  0  0  0  0  0  0
    0.4400   -1.6358    0.9723 O   0  0  0  0  0  0  0  0  0  0  0  0
   -0.2936   -0.8981   -1.1661 C   0  0  0  0  0  0  0  0  0  0  0  0
   -0.8452    0.1216   -0.7943 O   0  0  0  0  0  0  0  0  0  0  0  0
  1  2  1  0  0  0  0
  2  3  2  0  0  0  0
  3  4  1  0  0  0  0
  3 54  1  0  0  0  0
  4  5  1  0  0  0  0
  5  6  1  1  0  0  0
  5 50  1  0  0  0  0
  6  7  1  0  0  0  0
  7  8  2  0  0  0  0
  7 12  1  0  0  0  0
  8  9  1  0  0  0  0
  8 26  1  0  0  0  0
  9 10  1  0  0  0  0
 10 11  2  0  0  0  0
 10 21  1  0  0  0  0
 11 12  1  0  0  0  0
 11 13  1  0  0  0  0
 13 14  1  0  0  0  0
 13 19  1  0  0  0  0
 14 15  1  0  0  0  0
 15 16  2  0  0  0  0
 15 17  1  0  0  0  0
 17 18  1  0  0  0  0
 18 19  1  0  0  0  0
 18 25  1  0  0  0  0
 19 20  2  0  0  0  0
 20 21  1  0  0  0  0
 20 22  1  0  0  0  0
 22 23  1  0  0  0  0
 22 24  1  0  0  0  0
 23 24  1  0  0  0  0
 26 27  2  0  0  0  0
 26 32  1  0  0  0  0
 27 28  1  0  0  0  0
 28 29  1  0  0  0  0
 28 30  2  0  0  0  0
 30 31  1  0  0  0  0
 31 32  2  0  0  0  0
 31 42  1  0  0  0  0
 32 33  1  0  0  0  0
 33 34  2  0  0  0  0
 34 35  1  0  0  0  0
 34 41  1  0  0  0  0
 35 36  2  0  0  0  0
 35 37  1  0  0  0  0
 37 38  2  0  0  0  0
 39 37  1  6  0  0  0
 39 40  1  0  0  0  0
 39 45  1  0  0  0  0
 40 41  1  0  0  0  0
 41 42  2  0  0  0  0
 42 43  1  0  0  0  0
 43 44  3  0  0  0  0
 45 46  1  6  0  0  0
 45 47  1  0  0  0  0
 45 48  1  0  0  0  0
 47 48  1  0  0  0  0
 48 49  2  0  0  0  0
 50 51  2  0  0  0  0
 50 52  1  0  0  0  0
 52 53  2  0  0  0  0
 52 54  1  0  0  0  0
 54 55  2  0  0  0  0
M  CHG  2  21   1  28   1
M  END
$$$$