
 OpenBabel09252022423D

 46 53  0  0  1  0  0  0  0  0999 V2000
    5.7500    5.1245    2.1845 O   0  0  0  0  0  0  0  0  0  0  0  0
    6.0159    3.8537    1.7437 C   0  0  0  0  0  0  0  0  0  0  0  0
    5.2485    3.2263    0.8448 C   0  0  0  0  0  0  0  0  0  0  0  0
    4.1160    3.8384    0.3357 O   0  0  0  0  0  0  0  0  0  0  0  0
    3.8404    3.5150   -1.0271 C   0  0  2  0  0  0  0  0  0  0  0  0
    2.7421    4.2717   -1.5439 O   0  0  0  0  0  0  0  0  0  0  0  0
    2.8845    5.6551   -1.5369 C   0  0  0  0  0  0  0  0  0  0  0  0
    1.8078    6.4592   -1.4122 C   0  0  0  0  0  0  0  0  0  0  0  0
    1.8756    7.8493   -1.4511 O   0  0  0  0  0  0  0  0  0  0  0  0
    3.0867    8.4576   -1.7474 C   0  0  0  0  0  0  0  0  0  0  0  0
    4.2077    7.7392   -1.9157 C   0  0  0  0  0  0  0  0  0  0  0  0
    4.2506    6.2554   -1.7704 C   0  0  0  0  0  0  0  0  0  0  0  0
    5.4544    8.4635   -2.2840 C   0  0  0  0  0  0  0  0  0  0  0  0
    6.5526    7.8152   -2.4916 N   0  0  0  0  0  0  0  0  0  0  0  0
    7.6893    8.5126   -2.8537 C   0  0  0  0  0  0  0  0  0  0  0  0
    8.7107    7.8758   -3.0633 O   0  0  0  0  0  0  0  0  0  0  0  0
    7.7264    9.8865   -2.9940 N   0  0  0  0  0  0  0  0  0  0  0  0
    6.6476   10.5587   -2.7867 C   0  0  0  0  0  0  0  0  0  0  0  0
    5.3774    9.9361   -2.4127 C   0  0  0  0  0  0  0  0  0  0  0  0
    4.2078   10.5714   -2.1974 C   0  0  0  0  0  0  0  0  0  0  0  0
    3.0811    9.8244   -1.8807 N   0  0  0  0  0  0  0  0  0  0  0  0
    4.0086   12.0362   -2.2901 C   0  0  0  0  0  0  0  0  0  0  0  0
    3.5349   12.8011   -1.1684 O   0  0  0  0  0  0  0  0  0  0  0  0
    4.8810   12.9784   -1.6446 O   0  0  0  0  0  0  0  0  0  0  0  0
    0.4404    5.9359   -1.2637 C   0  0  0  0  0  0  0  0  0  0  0  0
    0.0490    5.7440    0.0135 N   0  0  0  0  0  0  0  0  0  0  0  0
   -1.1909    5.2772    0.1754 C   0  0  0  0  0  0  0  0  0  0  0  0
   -2.0680    5.0087   -0.8013 N   0  0  0  0  0  0  0  0  0  0  0  0
   -1.6651    5.2148   -2.0583 C   0  0  0  0  0  0  0  0  0  0  0  0
   -0.3847    5.6898   -2.3750 C   0  0  0  0  0  0  0  0  0  0  0  0
   -0.0298    5.8872   -3.7352 C   0  0  0  0  0  0  0  0  0  0  0  0
   -0.9559    5.6350   -4.7499 C   0  0  0  0  0  0  0  0  0  0  0  0
   -2.2279    5.1848   -4.4297 C   0  0  0  0  0  0  0  0  0  0  0  0
   -2.5593    4.9587   -3.0925 C   0  0  0  0  0  0  0  0  0  0  0  0
   -3.1906    4.8966   -5.3548 O   0  0  0  0  0  0  0  0  0  0  0  0
   -3.0893    5.6459   -6.5572 C   0  0  0  0  0  0  0  0  0  0  0  0
   -1.7141    5.7339   -7.1694 C   0  0  0  0  0  0  0  0  0  0  0  0
   -1.5005    5.8370   -8.3687 O   0  0  0  0  0  0  0  0  0  0  0  0
   -0.5912    5.8317   -6.1592 C   0  0  0  0  0  0  0  0  0  0  0  0
    0.5519    6.0968   -6.4962 O   0  0  0  0  0  0  0  0  0  0  0  0
    3.5396    2.0293   -1.1019 C   0  0  0  0  0  0  0  0  0  0  0  0
    2.5298    1.4983   -1.5364 O   0  0  0  0  0  0  0  0  0  0  0  0
    4.6906    1.2123   -0.5739 C   0  0  0  0  0  0  0  0  0  0  0  0
    4.8921    0.0862   -0.9998 O   0  0  0  0  0  0  0  0  0  0  0  0
    5.6336    1.8448    0.4323 C   0  0  0  0  0  0  0  0  0  0  0  0
    6.6310    1.2658    0.8304 O   0  0  0  0  0  0  0  0  0  0  0  0
  1  2  1  0  0  0  0
  2  3  2  0  0  0  0
  3  4  1  0  0  0  0
  3 45  1  0  0  0  0
  4  5  1  0  0  0  0
  5  6  1  1  0  0  0
  5 41  1  0  0  0  0
  6  7  1  0  0  0  0
  7  8  2  0  0  0  0
  7 12  1  0  0  0  0
  8  9  1  0  0  0  0
  8 25  1  0  0  0  0
  9 10  1  0  0  0  0
 10 11  2  0  0  0  0
 10 21  1  0  0  0  0
 11 12  1  0  0  0  0
 11 13  1  0  0  0  0
 13 14  2  0  0  0  0
 13 19  1  0  0  0  0
 14 15  1  0  0  0  0
 15 16  2  0  0  0  0
 15 17  1  0  0  0  0
 17 18  2  0  0  0  0
 18 19  1  0  0  0  0
 19 20  2  0  0  0  0
 20 21  1  0  0  0  0
 20 22  1  0  0  0  0
 22 23  1  0  0  0  0
 22 24  1  0  0  0  0
 23 24  1  0  0  0  0
 25 26  2  0  0  0  0
 25 30  1  0  0  0  0
 26 27  1  0  0  0  0
 27 28  2  0  0  0  0
 28 29  1  0  0  0  0
 29 30  2  0  0  0  0
 29 34  1  0  0  0  0
 30 31  1  0  0  0  0
 31 32  2  0  0  0  0
 32 33  1  0  0  0  0
 32 39  1  0  0  0  0
 33 34  2  0  0  0  0
 33 35  1  0  0  0  0
 35 36  1  0  0  0  0
 36 37  1  0  0  0  0
 37 38  2  0  0  0  0
 37 39  1  0  0  0  0
 39 40  2  0  0  0  0
 41 42  2  0  0  0  0
 41 43  1  0  0  0  0
 43 44  2  0  0  0  0
 43 45  1  0  0  0  0
 45 46  2  0  0  0  0
M  END
$$$$