
 OpenBabel11212014203D

 52 60  0  0  1  0  0  0  0  0999 V2000
   -1.6400    5.7018    0.7184 O   0  0  0  0  0  0  0  0  0  0  0  0
   -0.5124    6.0571    0.0227 C   0  0  0  0  0  0  0  0  0  0  0  0
    0.7019    5.6160    0.3700 C   0  0  0  0  0  0  0  0  0  0  0  0
    0.8433    4.8107    1.4785 O   0  0  0  0  0  0  0  0  0  0  0  0
    1.9030    3.8691    1.4518 C   0  0  2  0  0  0  0  0  0  0  0  0
    1.9410    3.1013    2.6741 O   0  0  0  0  0  0  0  0  0  0  0  0
    2.1710    3.7548    3.8800 C   0  0  0  0  0  0  0  0  0  0  0  0
    2.7985    3.1266    4.8954 C   0  0  0  0  0  0  0  0  0  0  0  0
    3.0445    3.7264    6.1288 O   0  0  0  0  0  0  0  0  0  0  0  0
    2.6227    5.0318    6.3564 C   0  0  0  0  0  0  0  0  0  0  0  0
    1.9638    5.7332    5.4171 C   0  0  0  0  0  0  0  0  0  0  0  0
    1.6632    5.1604    4.0655 C   0  0  0  0  0  0  0  0  0  0  0  0
    1.4968    7.1413    5.6485 C   0  0  3  0  0  0  0  0  0  0  0  0
    0.0852    7.1640    5.5260 O   0  0  0  0  0  0  0  0  0  0  0  0
   -0.4892    8.3940    5.6143 C   0  0  0  0  0  0  0  0  0  0  0  0
   -1.5791    8.6413    5.1275 O   0  0  0  0  0  0  0  0  0  0  0  0
    0.2661    9.3247    6.2503 O   0  0  0  0  0  0  0  0  0  0  0  0
    1.1807    8.9404    7.2900 C   0  0  0  0  0  0  0  0  0  0  0  0
    1.8033    7.6077    7.0244 C   0  0  0  0  0  0  0  0  0  0  0  0
    2.4779    6.8518    7.9212 C   0  0  0  0  0  0  0  0  0  0  0  0
    2.9098    5.5768    7.5837 O   0  3  0  0  0  0  0  0  0  0  0  0
    2.7623    7.2894    9.3068 C   0  0  0  0  0  0  0  0  0  0  0  0
    1.8585    6.9859   10.3762 O   0  0  0  0  0  0  0  0  0  0  0  0
    3.1430    6.3341   10.3100 O   0  0  0  0  0  0  0  0  0  0  0  0
    3.3256    1.7542    4.7837 C   0  0  0  0  0  0  0  0  0  0  0  0
    4.6166    1.5961    4.3037 C   0  0  0  0  0  0  0  0  0  0  0  0
    5.2026    0.3963    4.1999 N   0  0  0  0  0  0  0  0  0  0  0  0
    4.5040   -0.7244    4.5579 N   0  0  0  0  0  0  0  0  0  0  0  0
    3.2397   -0.6559    5.0126 C   0  0  0  0  0  0  0  0  0  0  0  0
    2.5985    0.5932    5.1487 C   0  0  0  0  0  0  0  0  0  0  0  0
    1.2707    0.6199    5.6412 C   0  0  0  0  0  0  0  0  0  0  0  0
    0.6118   -0.5584    6.0193 C   0  0  0  0  0  0  0  0  0  0  0  0
   -0.7514   -0.4981    6.5593 C   0  0  0  0  0  0  0  0  0  0  0  0
   -1.3365    0.5647    6.6958 O   0  0  0  0  0  0  0  0  0  0  0  0
   -1.3813   -1.8150    6.9541 C   0  0  0  0  0  0  0  0  0  0  0  0
   -2.5913   -1.9217    7.0859 O   0  0  0  0  0  0  0  0  0  0  0  0
   -0.3864   -2.9240    7.2076 C   0  0  1  0  0  0  0  0  0  0  0  0
    0.6929   -2.9845    6.2633 O   0  0  0  0  0  0  0  0  0  0  0  0
    1.2450   -1.7840    5.9006 C   0  0  0  0  0  0  0  0  0  0  0  0
    2.5403   -1.8190    5.3767 C   0  0  0  0  0  0  0  0  0  0  0  0
    3.1576   -3.0427    5.2359 O   0  0  0  0  0  0  0  0  0  0  0  0
    0.1497   -2.8572    8.6029 C   0  0  1  0  0  0  0  0  0  0  0  0
    0.8428   -1.6383    8.9771 O   0  0  0  0  0  0  0  0  0  0  0  0
   -0.6854   -3.4327    9.6024 O   0  0  0  0  0  0  0  0  0  0  0  0
    0.5011   -4.0385    9.3930 C   0  0  0  0  0  0  0  0  0  0  0  0
    1.4369   -4.1929   10.1476 O   0  0  0  0  0  0  0  0  0  0  0  0
    3.2609    4.4886    1.1403 C   0  0  0  0  0  0  0  0  0  0  0  0
    4.3057    4.2376    1.7278 O   0  0  0  0  0  0  0  0  0  0  0  0
    3.2085    5.5340    0.0562 C   0  0  0  0  0  0  0  0  0  0  0  0
    4.2529    5.9728   -0.4014 O   0  0  0  0  0  0  0  0  0  0  0  0
    1.8776    6.0805   -0.4142 C   0  0  0  0  0  0  0  0  0  0  0  0
    1.8061    6.8646   -1.3458 O   0  0  0  0  0  0  0  0  0  0  0  0
  1  2  1  0  0  0  0
  2  3  2  0  0  0  0
  3  4  1  0  0  0  0
  3 51  1  0  0  0  0
  4  5  1  0  0  0  0
  5  6  1  1  0  0  0
  5 47  1  0  0  0  0
  6  7  1  0  0  0  0
  7  8  2  0  0  0  0
  7 12  1  0  0  0  0
  8  9  1  0  0  0  0
  8 25  1  0  0  0  0
  9 10  1  0  0  0  0
 10 11  2  0  0  0  0
 10 21  1  0  0  0  0
 11 12  1  0  0  0  0
 11 13  1  0  0  0  0
 13 14  1  0  0  0  0
 13 19  1  0  0  0  0
 14 15  1  0  0  0  0
 15 16  2  0  0  0  0
 15 17  1  0  0  0  0
 17 18  1  0  0  0  0
 18 19  1  0  0  0  0
 19 20  2  0  0  0  0
 20 21  1  0  0  0  0
 20 22  1  0  0  0  0
 22 23  1  0  0  0  0
 22 24  1  0  0  0  0
 23 24  1  0  0  0  0
 25 26  2  0  0  0  0
 25 30  1  0  0  0  0
 26 27  1  0  0  0  0
 27 28  2  0  0  0  0
 28 29  1  0  0  0  0
 29 30  2  0  0  0  0
 29 40  1  0  0  0  0
 30 31  1  0  0  0  0
 31 32  2  0  0  0  0
 32 33  1  0  0  0  0
 32 39  1  0  0  0  0
 33 34  2  0  0  0  0
 33 35  1  0  0  0  0
 35 36  2  0  0  0  0
 37 35  1  6  0  0  0
 37 38  1  0  0  0  0
 37 42  1  0  0  0  0
 38 39  1  0  0  0  0
 39 40  2  0  0  0  0
 40 41  1  0  0  0  0
 42 43  1  1  0  0  0
 42 44  1  0  0  0  0
 42 45  1  0  0  0  0
 44 45  1  0  0  0  0
 45 46  2  0  0  0  0
 47 48  2  0  0  0  0
 47 49  1  0  0  0  0
 49 50  2  0  0  0  0
 49 51  1  0  0  0  0
 51 52  2  0  0  0  0
M  CHG  1  21   1
M  END
$$$$