
 OpenBabel11252011563D

 54 62  0  0  1  0  0  0  0  0999 V2000
    3.6663   -3.8026   -1.9608 O   0  0  0  0  0  0  0  0  0  0  0  0
    4.0294   -2.6058   -1.3923 C   0  0  0  0  0  0  0  0  0  0  0  0
    3.7517   -2.2859   -0.1223 C   0  0  0  0  0  0  0  0  0  0  0  0
    3.0427   -3.1629    0.6771 O   0  0  0  0  0  0  0  0  0  0  0  0
    3.2793   -3.0151    2.0787 C   0  0  2  0  0  0  0  0  0  0  0  0
    2.4169   -3.9108    2.8244 O   0  0  0  0  0  0  0  0  0  0  0  0
    2.4907   -5.2488    2.4582 C   0  0  0  0  0  0  0  0  0  0  0  0
    1.3983   -6.0442    2.4600 C   0  0  0  0  0  0  0  0  0  0  0  0
    1.4986   -7.4108    2.1543 O   0  0  0  0  0  0  0  0  0  0  0  0
    2.7483   -8.0288    2.0761 C   0  0  0  0  0  0  0  0  0  0  0  0
    3.8808   -7.3011    2.0563 C   0  0  0  0  0  0  0  0  0  0  0  0
    3.8581   -5.8066    2.1464 C   0  0  0  0  0  0  0  0  0  0  0  0
    5.2387   -7.9357    1.9191 C   0  0  3  0  0  0  0  0  0  0  0  0
    6.0264   -7.5683    3.0286 O   0  0  0  0  0  0  0  0  0  0  0  0
    7.2979   -8.0636    3.0389 C   0  0  0  0  0  0  0  0  0  0  0  0
    8.1836   -7.4905    3.6492 O   0  0  0  0  0  0  0  0  0  0  0  0
    7.5071   -9.2179    2.3514 O   0  0  0  0  0  0  0  0  0  0  0  0
    6.4916   -9.9895    1.9211 C   0  0  0  0  0  0  0  0  0  0  0  0
    6.6528  -11.1145    1.4736 O   0  0  0  0  0  0  0  0  0  0  0  0
    5.1532   -9.4012    1.9501 C   0  0  0  0  0  0  0  0  0  0  0  0
    3.9934  -10.0939    1.9887 C   0  0  0  0  0  0  0  0  0  0  0  0
    2.7823   -9.4075    2.0187 O   0  3  0  0  0  0  0  0  0  0  0  0
    3.8680  -11.5748    1.9813 C   0  0  0  0  0  0  0  0  0  0  0  0
    2.5673  -12.1820    2.1143 O   0  0  0  0  0  0  0  0  0  0  0  0
    3.2705  -12.2425    0.8606 O   0  0  0  0  0  0  0  0  0  0  0  0
    0.0089   -5.5606    2.7717 C   0  0  0  0  0  0  0  0  0  0  0  0
   -0.3882   -4.2956    2.3346 C   0  0  0  0  0  0  0  0  0  0  0  0
   -1.6187   -3.8337    2.5717 N   0  3  0  0  0  0  0  0  0  0  0  0
   -1.9415   -2.5951    2.1513 F   0  0  0  0  0  0  0  0  0  0  0  0
   -2.5431   -4.5469    3.1851 N   0  0  0  0  0  0  0  0  0  0  0  0
   -2.2679   -5.7886    3.5965 C   0  0  0  0  0  0  0  0  0  0  0  0
   -0.9769   -6.3404    3.4303 C   0  0  0  0  0  0  0  0  0  0  0  0
   -0.7610   -7.6517    3.9047 C   0  0  0  0  0  0  0  0  0  0  0  0
   -1.8060   -8.4511    4.3644 C   0  0  0  0  0  0  0  0  0  0  0  0
   -1.5685   -9.8780    4.5868 C   0  0  0  0  0  0  0  0  0  0  0  0
   -0.4585  -10.3490    4.3702 O   0  0  0  0  0  0  0  0  0  0  0  0
   -2.7743  -10.7367    4.9122 C   0  0  0  0  0  0  0  0  0  0  0  0
   -2.6356  -11.9284    5.1404 O   0  0  0  0  0  0  0  0  0  0  0  0
   -4.1123  -10.0545    4.7048 C   0  0  1  0  0  0  0  0  0  0  0  0
   -4.1149   -8.6484    5.0101 O   0  0  0  0  0  0  0  0  0  0  0  0
   -3.0691   -7.9225    4.5070 C   0  0  0  0  0  0  0  0  0  0  0  0
   -3.2921   -6.5664    4.1905 C   0  0  0  0  0  0  0  0  0  0  0  0
   -4.6212   -6.0840    4.2261 N   0  0  0  0  0  0  0  0  0  0  0  0
   -4.6734  -10.2852    3.3289 C   0  0  1  0  0  0  0  0  0  0  0  0
   -5.8224   -9.4772    2.9760 O   0  0  0  0  0  0  0  0  0  0  0  0
   -3.6897  -10.4376    2.3062 O   0  0  0  0  0  0  0  0  0  0  0  0
   -4.4956  -11.5004    2.5346 C   0  0  0  0  0  0  0  0  0  0  0  0
   -5.2587  -12.0459    1.7640 O   0  0  0  0  0  0  0  0  0  0  0  0
    2.9975   -1.5767    2.5252 C   0  0  3  0  0  0  0  0  0  0  0  0
    4.0152   -0.6500    1.8642 C   0  0  3  0  0  0  0  0  0  0  0  0
    4.1930   -0.9434    0.3785 C   0  0  0  0  0  0  0  0  0  0  0  0
    4.7218   -0.1151   -0.3618 O   0  0  0  0  0  0  0  0  0  0  0  0
    3.6141    0.6969    2.0925 O   0  0  0  0  0  0  0  0  0  0  0  0
    1.6480   -1.1784    2.1943 O   0  0  0  0  0  0  0  0  0  0  0  0
  1  2  1  0  0  0  0
  2  3  2  0  0  0  0
  3  4  1  0  0  0  0
  3 51  1  0  0  0  0
  4  5  1  0  0  0  0
  5  6  1  1  0  0  0
  5 49  1  0  0  0  0
  6  7  1  0  0  0  0
  7  8  2  0  0  0  0
  7 12  1  0  0  0  0
  8  9  1  0  0  0  0
  8 26  1  0  0  0  0
  9 10  1  0  0  0  0
 10 11  2  0  0  0  0
 10 22  1  0  0  0  0
 11 12  1  0  0  0  0
 11 13  1  0  0  0  0
 13 14  1  0  0  0  0
 13 20  1  0  0  0  0
 14 15  1  0  0  0  0
 15 16  2  0  0  0  0
 15 17  1  0  0  0  0
 17 18  1  0  0  0  0
 18 19  2  0  0  0  0
 18 20  1  0  0  0  0
 20 21  2  0  0  0  0
 21 22  1  0  0  0  0
 21 23  1  0  0  0  0
 23 24  1  0  0  0  0
 23 25  1  0  0  0  0
 24 25  1  0  0  0  0
 26 27  2  0  0  0  0
 26 32  1  0  0  0  0
 27 28  1  0  0  0  0
 28 29  1  0  0  0  0
 28 30  2  0  0  0  0
 30 31  1  0  0  0  0
 31 32  2  0  0  0  0
 31 42  1  0  0  0  0
 32 33  1  0  0  0  0
 33 34  2  0  0  0  0
 34 35  1  0  0  0  0
 34 41  1  0  0  0  0
 35 36  2  0  0  0  0
 35 37  1  0  0  0  0
 37 38  2  0  0  0  0
 39 37  1  6  0  0  0
 39 40  1  0  0  0  0
 39 44  1  0  0  0  0
 40 41  1  0  0  0  0
 41 42  2  0  0  0  0
 42 43  1  0  0  0  0
 44 45  1  6  0  0  0
 44 46  1  0  0  0  0
 44 47  1  0  0  0  0
 46 47  1  0  0  0  0
 47 48  2  0  0  0  0
 49 50  1  0  0  0  0
 49 54  1  0  0  0  0
 50 51  1  0  0  0  0
 50 53  1  0  0  0  0
 51 52  2  0  0  0  0
M  CHG  2  22   1  28   1
M  END
$$$$