
 OpenBabel11252019303D

 54 62  0  0  1  0  0  0  0  0999 V2000
    3.4609   -3.7496   -1.8914 O   0  0  0  0  0  0  0  0  0  0  0  0
    3.3575   -2.4819   -1.3738 C   0  0  0  0  0  0  0  0  0  0  0  0
    2.7882   -2.2481   -0.1877 C   0  0  0  0  0  0  0  0  0  0  0  0
    2.2381   -3.2997    0.5332 O   0  0  0  0  0  0  0  0  0  0  0  0
    2.3694   -3.1515    1.9295 C   0  0  2  0  0  0  0  0  0  0  0  0
    1.6816   -4.2299    2.6364 O   0  0  0  0  0  0  0  0  0  0  0  0
    1.9335   -5.5683    2.4693 C   0  0  0  0  0  0  0  0  0  0  0  0
    1.1559   -6.5345    3.0409 C   0  0  0  0  0  0  0  0  0  0  0  0
    1.4489   -7.8978    2.7415 O   0  0  0  0  0  0  0  0  0  0  0  0
    2.6376   -8.2951    2.1008 C   0  0  0  0  0  0  0  0  0  0  0  0
    3.4783   -7.3646    1.6292 C   0  0  0  0  0  0  0  0  0  0  0  0
    3.1548   -5.9096    1.6509 C   0  0  0  0  0  0  0  0  0  0  0  0
    4.8237   -7.7084    1.0485 C   0  0  3  0  0  0  0  0  0  0  0  0
    5.7808   -7.2173    1.9699 O   0  0  0  0  0  0  0  0  0  0  0  0
    7.0886   -7.4665    1.6873 C   0  0  0  0  0  0  0  0  0  0  0  0
    7.9829   -6.9076    2.3015 O   0  0  0  0  0  0  0  0  0  0  0  0
    7.3064   -8.3412    0.6753 O   0  0  0  0  0  0  0  0  0  0  0  0
    6.4117   -9.4233    0.4394 C   0  0  3  0  0  0  0  0  0  0  0  0
    5.0481   -9.1653    0.9853 C   0  0  0  0  0  0  0  0  0  0  0  0
    4.1363  -10.0715    1.4014 C   0  0  0  0  0  0  0  0  0  0  0  0
    2.9359   -9.6497    1.9780 O   0  3  0  0  0  0  0  0  0  0  0  0
    4.3223  -11.5419    1.3070 C   0  0  0  0  0  0  0  0  0  0  0  0
    4.2747  -12.3542    2.4868 O   0  0  0  0  0  0  0  0  0  0  0  0
    3.2047  -12.4218    1.5264 O   0  0  0  0  0  0  0  0  0  0  0  0
    6.2094   -9.5628   -0.9507 O   0  0  0  0  0  0  0  0  0  0  0  0
    0.0021   -6.2390    3.9330 N   0  3  0  0  0  0  0  0  0  0  0  0
   -0.3188   -4.9484    4.2695 C   0  0  0  0  0  0  0  0  0  0  0  0
   -1.3880   -4.6102    4.9955 N   0  3  0  0  0  0  0  0  0  0  0  0
   -1.6047   -3.3094    5.2786 F   0  0  0  0  0  0  0  0  0  0  0  0
   -2.2128   -5.5104    5.4629 N   0  0  0  0  0  0  0  0  0  0  0  0
   -1.9406   -6.7972    5.2751 C   0  0  0  0  0  0  0  0  0  0  0  0
   -0.8063   -7.2202    4.5194 C   0  0  0  0  0  0  0  0  0  0  0  0
   -0.5680   -8.5993    4.4917 C   0  0  0  0  0  0  0  0  0  0  0  0
   -1.3809   -9.5123    5.1864 C   0  0  0  0  0  0  0  0  0  0  0  0
   -1.0080  -10.9285    5.1931 C   0  0  0  0  0  0  0  0  0  0  0  0
   -0.1237  -11.3358    4.4597 O   0  0  0  0  0  0  0  0  0  0  0  0
   -1.7665  -11.7587    6.1958 C   0  0  0  0  0  0  0  0  0  0  0  0
   -1.1611  -12.4962    6.9529 O   0  0  0  0  0  0  0  0  0  0  0  0
   -3.2347  -11.4010    6.2279 C   0  0  1  0  0  0  0  0  0  0  0  0
   -3.4202   -9.9699    6.4162 O   0  0  0  0  0  0  0  0  0  0  0  0
   -2.5250   -9.1112    5.8431 C   0  0  0  0  0  0  0  0  0  0  0  0
   -2.7842   -7.7437    5.8726 C   0  0  0  0  0  0  0  0  0  0  0  0
   -3.8761   -7.3018    6.5126 F   0  0  0  0  0  0  0  0  0  0  0  0
   -3.9151  -11.9425    4.9943 C   0  0  1  0  0  0  0  0  0  0  0  0
   -3.8643  -13.3682    4.8281 O   0  0  0  0  0  0  0  0  0  0  0  0
   -5.0994  -11.2795    4.5553 O   0  0  0  0  0  0  0  0  0  0  0  0
   -4.0337  -11.1895    3.7462 C   0  0  0  0  0  0  0  0  0  0  0  0
   -3.3988  -10.2352    3.3345 O   0  0  0  0  0  0  0  0  0  0  0  0
    1.5935   -1.9324    2.3977 C   0  0  0  0  0  0  0  0  0  0  0  0
    0.7956   -1.9633    3.3307 O   0  0  0  0  0  0  0  0  0  0  0  0
    1.8144   -0.7114    1.5355 C   0  0  0  0  0  0  0  0  0  0  0  0
    1.2163    0.3155    1.7981 O   0  0  0  0  0  0  0  0  0  0  0  0
    2.7022   -0.8386    0.3072 C   0  0  0  0  0  0  0  0  0  0  0  0
    3.3030    0.1014   -0.1624 O   0  0  0  0  0  0  0  0  0  0  0  0
  1  2  1  0  0  0  0
  2  3  2  0  0  0  0
  3  4  1  0  0  0  0
  3 53  1  0  0  0  0
  4  5  1  0  0  0  0
  5  6  1  1  0  0  0
  5 49  1  0  0  0  0
  6  7  1  0  0  0  0
  7  8  2  0  0  0  0
  7 12  1  0  0  0  0
  8  9  1  0  0  0  0
  8 26  1  0  0  0  0
  9 10  1  0  0  0  0
 10 11  2  0  0  0  0
 10 21  1  0  0  0  0
 11 12  1  0  0  0  0
 11 13  1  0  0  0  0
 13 14  1  0  0  0  0
 13 19  1  0  0  0  0
 14 15  1  0  0  0  0
 15 16  2  0  0  0  0
 15 17  1  0  0  0  0
 17 18  1  0  0  0  0
 18 19  1  0  0  0  0
 18 25  1  0  0  0  0
 19 20  2  0  0  0  0
 20 21  1  0  0  0  0
 20 22  1  0  0  0  0
 22 23  1  0  0  0  0
 22 24  1  0  0  0  0
 23 24  1  0  0  0  0
 26 27  2  0  0  0  0
 26 32  1  0  0  0  0
 27 28  1  0  0  0  0
 28 29  1  0  0  0  0
 28 30  2  0  0  0  0
 30 31  1  0  0  0  0
 31 32  2  0  0  0  0
 31 42  1  0  0  0  0
 32 33  1  0  0  0  0
 33 34  2  0  0  0  0
 34 35  1  0  0  0  0
 34 41  1  0  0  0  0
 35 36  2  0  0  0  0
 35 37  1  0  0  0  0
 37 38  2  0  0  0  0
 39 37  1  6  0  0  0
 39 40  1  0  0  0  0
 39 44  1  0  0  0  0
 40 41  1  0  0  0  0
 41 42  2  0  0  0  0
 42 43  1  0  0  0  0
 44 45  1  6  0  0  0
 44 46  1  0  0  0  0
 44 47  1  0  0  0  0
 46 47  1  0  0  0  0
 47 48  2  0  0  0  0
 49 50  2  0  0  0  0
 49 51  1  0  0  0  0
 51 52  2  0  0  0  0
 51 53  1  0  0  0  0
 53 54  2  0  0  0  0
M  CHG  3  21   1  26   1  28   1
M  END
$$$$