
 OpenBabel10192021113D

 51 59  0  0  1  0  0  0  0  0999 V2000
    3.2765    4.2516    4.3235 O   0  0  0  0  0  0  0  0  0  0  0  0
    3.7495    3.0926    3.7637 C   0  0  0  0  0  0  0  0  0  0  0  0
    3.5978    2.8132    2.4641 C   0  0  0  0  0  0  0  0  0  0  0  0
    2.8982    3.6863    1.6474 O   0  0  0  0  0  0  0  0  0  0  0  0
    3.2834    3.7134    0.2742 C   0  0  2  0  0  0  0  0  0  0  0  0
    2.4624    4.6176   -0.4652 O   0  0  0  0  0  0  0  0  0  0  0  0
    2.5253    5.9564   -0.0977 C   0  0  0  0  0  0  0  0  0  0  0  0
    1.4590    6.7666   -0.2615 C   0  0  0  0  0  0  0  0  0  0  0  0
    1.4726    8.1250    0.0226 O   0  0  0  0  0  0  0  0  0  0  0  0
    2.6815    8.7324    0.3173 C   0  0  0  0  0  0  0  0  0  0  0  0
    3.8064    8.0173    0.4824 C   0  0  0  0  0  0  0  0  0  0  0  0
    3.8395    6.5295    0.3775 C   0  0  0  0  0  0  0  0  0  0  0  0
    5.0722    8.7584    0.7412 C   0  0  0  0  0  0  0  0  0  0  0  0
    6.1909    8.1316    0.9070 N   0  0  0  0  0  0  0  0  0  0  0  0
    7.3433    8.8620    1.1341 C   0  0  0  0  0  0  0  0  0  0  0  0
    8.3854    8.2486    1.3255 O   0  0  0  0  0  0  0  0  0  0  0  0
    7.3836   10.2424    1.1474 N   0  0  0  0  0  0  0  0  0  0  0  0
    6.2834   10.8915    0.9881 C   0  0  0  0  0  0  0  0  0  0  0  0
    4.9952   10.2351    0.7803 C   0  0  0  0  0  0  0  0  0  0  0  0
    3.8129   10.8604    0.6191 C   0  0  0  0  0  0  0  0  0  0  0  0
    2.6736   10.1012    0.4050 N   0  0  0  0  0  0  0  0  0  0  0  0
    3.6319   12.3291    0.6359 C   0  0  0  0  0  0  0  0  0  0  0  0
    2.7247   12.9628    1.5529 O   0  0  0  0  0  0  0  0  0  0  0  0
    4.1449   13.1548    1.6972 O   0  0  0  0  0  0  0  0  0  0  0  0
    0.1840    6.2913   -0.8107 C   0  0  0  0  0  0  0  0  0  0  0  0
    0.0827    6.4208   -2.1515 N   0  0  0  0  0  0  0  0  0  0  0  0
   -1.0356    5.9436   -2.6980 C   0  0  0  0  0  0  0  0  0  0  0  0
   -2.0522    5.3743   -2.0376 N   0  0  0  0  0  0  0  0  0  0  0  0
   -1.9358    5.2703   -0.7101 C   0  0  0  0  0  0  0  0  0  0  0  0
   -0.8178    5.7348   -0.0046 C   0  0  0  0  0  0  0  0  0  0  0  0
   -0.7766    5.6198    1.4090 C   0  0  0  0  0  0  0  0  0  0  0  0
   -1.8309    5.0130    2.0914 C   0  0  0  0  0  0  0  0  0  0  0  0
   -2.9103    4.5001    1.3842 C   0  0  0  0  0  0  0  0  0  0  0  0
   -2.9636    4.6614   -0.0017 C   0  0  0  0  0  0  0  0  0  0  0  0
   -3.9586    3.8306    1.9522 O   0  0  0  0  0  0  0  0  0  0  0  0
   -3.7063    3.2559    3.2403 C   0  0  2  0  0  0  0  0  0  0  0  0
   -2.9635    4.1631    4.1910 C   0  0  0  0  0  0  0  0  0  0  0  0
   -3.2193    4.2753    5.3819 O   0  0  0  0  0  0  0  0  0  0  0  0
   -1.8180    4.9199    3.5576 C   0  0  0  0  0  0  0  0  0  0  0  0
   -0.9486    5.4423    4.2363 O   0  0  0  0  0  0  0  0  0  0  0  0
   -3.0210    1.9324    3.1052 C   0  0  1  0  0  0  0  0  0  0  0  0
   -1.6790    1.9414    2.5542 O   0  0  0  0  0  0  0  0  0  0  0  0
   -3.2407    1.0320    4.1924 O   0  0  0  0  0  0  0  0  0  0  0  0
   -3.7342    0.6602    2.9942 C   0  0  0  0  0  0  0  0  0  0  0  0
   -3.4789   -0.3115    2.3176 O   0  0  0  0  0  0  0  0  0  0  0  0
    3.1486    2.3116   -0.3022 C   0  0  0  0  0  0  0  0  0  0  0  0
    2.4380    1.9512   -1.2259 O   0  0  0  0  0  0  0  0  0  0  0  0
    3.9822    1.3442    0.4701 C   0  0  0  0  0  0  0  0  0  0  0  0
    4.9019    0.2322   -0.3583 S   0  0  0  0  0  0  0  0  0  0  0  0
    4.1408    1.5143    1.9549 C   0  0  0  0  0  0  0  0  0  0  0  0
    4.6542    0.6672    2.6653 O   0  0  0  0  0  0  0  0  0  0  0  0
  1  2  1  0  0  0  0
  2  3  2  0  0  0  0
  3  4  1  0  0  0  0
  3 50  1  0  0  0  0
  4  5  1  0  0  0  0
  5  6  1  6  0  0  0
  5 46  1  0  0  0  0
  6  7  1  0  0  0  0
  7  8  2  0  0  0  0
  7 12  1  0  0  0  0
  8  9  1  0  0  0  0
  8 25  1  0  0  0  0
  9 10  1  0  0  0  0
 10 11  2  0  0  0  0
 10 21  1  0  0  0  0
 11 12  1  0  0  0  0
 11 13  1  0  0  0  0
 13 14  2  0  0  0  0
 13 19  1  0  0  0  0
 14 15  1  0  0  0  0
 15 16  2  0  0  0  0
 15 17  1  0  0  0  0
 17 18  2  0  0  0  0
 18 19  1  0  0  0  0
 19 20  2  0  0  0  0
 20 21  1  0  0  0  0
 20 22  1  0  0  0  0
 22 23  1  0  0  0  0
 22 24  1  0  0  0  0
 23 24  1  0  0  0  0
 25 26  2  0  0  0  0
 25 30  1  0  0  0  0
 26 27  1  0  0  0  0
 27 28  2  0  0  0  0
 28 29  1  0  0  0  0
 29 30  2  0  0  0  0
 29 34  1  0  0  0  0
 30 31  1  0  0  0  0
 31 32  2  0  0  0  0
 32 33  1  0  0  0  0
 32 39  1  0  0  0  0
 33 34  2  0  0  0  0
 33 35  1  0  0  0  0
 36 35  1  6  0  0  0
 36 37  1  0  0  0  0
 36 41  1  0  0  0  0
 37 38  2  0  0  0  0
 37 39  1  0  0  0  0
 39 40  2  0  0  0  0
 41 42  1  6  0  0  0
 41 43  1  0  0  0  0
 41 44  1  0  0  0  0
 43 44  1  0  0  0  0
 44 45  2  0  0  0  0
 46 47  2  0  0  0  0
 46 48  1  0  0  0  0
 48 49  2  0  0  0  0
 48 50  1  0  0  0  0
 50 51  2  0  0  0  0
M  END
$$$$