
 OpenBabel09232009133D

 51 59  0  0  1  0  0  0  0  0999 V2000
    6.3080   -6.5797    3.1062 N   0  0  0  0  0  0  0  0  0  0  0  0
    5.5156   -5.6937    3.8000 C   0  0  0  0  0  0  0  0  0  0  0  0
    4.6646   -4.7995    3.2769 C   0  0  0  0  0  0  0  0  0  0  0  0
    4.5322   -4.6873    1.9021 O   0  0  0  0  0  0  0  0  0  0  0  0
    3.1908   -4.4517    1.4731 C   0  0  2  0  0  0  0  0  0  0  0  0
    3.0982   -4.4591    0.0444 O   0  0  0  0  0  0  0  0  0  0  0  0
    3.4526   -5.6394   -0.5998 C   0  0  0  0  0  0  0  0  0  0  0  0
    3.9738   -5.6260   -1.8427 C   0  0  0  0  0  0  0  0  0  0  0  0
    4.3333   -6.7656   -2.5452 O   0  0  0  0  0  0  0  0  0  0  0  0
    3.9131   -7.9928   -2.0800 C   0  0  0  0  0  0  0  0  0  0  0  0
    3.2668   -8.1338   -0.8643 C   0  0  0  0  0  0  0  0  0  0  0  0
    3.1164   -6.9545    0.0478 C   0  0  0  0  0  0  0  0  0  0  0  0
    2.7926   -9.4081   -0.5499 C   0  0  0  0  0  0  0  0  0  0  0  0
    2.0885   -9.6401    0.6389 N   0  0  0  0  0  0  0  0  0  0  0  0
    1.5213  -10.8222    0.9900 C   0  0  0  0  0  0  0  0  0  0  0  0
    0.8923  -10.9406    2.0359 O   0  0  0  0  0  0  0  0  0  0  0  0
    1.6587  -11.8538    0.1316 N   0  0  0  0  0  0  0  0  0  0  0  0
    2.4562  -11.8302   -1.0619 C   0  0  0  0  0  0  0  0  0  0  0  0
    2.9937  -10.4810   -1.4229 C   0  0  0  0  0  0  0  0  0  0  0  0
    3.7138  -10.2709   -2.6067 C   0  0  0  0  0  0  0  0  0  0  0  0
    4.1521   -9.0210   -2.9260 N   0  0  0  0  0  0  0  0  0  0  0  0
    4.0227  -11.3740   -3.6027 C   0  0  0  0  0  0  0  0  0  0  0  0
    5.2628  -12.0801   -3.4216 O   0  0  0  0  0  0  0  0  0  0  0  0
    4.0136  -12.7522   -3.1927 O   0  0  0  0  0  0  0  0  0  0  0  0
    4.1237   -4.3862   -2.6231 C   0  0  0  0  0  0  0  0  0  0  0  0
    3.0441   -4.1023   -3.3856 N   0  0  0  0  0  0  0  0  0  0  0  0
    3.1055   -2.9748   -4.0952 C   0  0  0  0  0  0  0  0  0  0  0  0
    4.1266   -2.1099   -4.1087 N   0  0  0  0  0  0  0  0  0  0  0  0
    5.1863   -2.4090   -3.3536 C   0  0  0  0  0  0  0  0  0  0  0  0
    5.2659   -3.5746   -2.5757 C   0  0  0  0  0  0  0  0  0  0  0  0
    6.4455   -3.8433   -1.8388 C   0  0  0  0  0  0  0  0  0  0  0  0
    7.5077   -2.9366   -1.8639 C   0  0  0  0  0  0  0  0  0  0  0  0
    7.4004   -1.7523   -2.5825 C   0  0  0  0  0  0  0  0  0  0  0  0
    6.2515   -1.5170   -3.3385 C   0  0  0  0  0  0  0  0  0  0  0  0
    8.3511   -0.7688   -2.6157 O   0  0  0  0  0  0  0  0  0  0  0  0
    9.3601   -0.8197   -1.5987 C   0  0  2  0  0  0  0  0  0  0  0  0
    9.8585   -2.2125   -1.3014 C   0  0  0  0  0  0  0  0  0  0  0  0
   11.0344   -2.5203   -1.1739 O   0  0  0  0  0  0  0  0  0  0  0  0
    8.7547   -3.2325   -1.1475 C   0  0  0  0  0  0  0  0  0  0  0  0
    8.9030   -4.2429   -0.4797 O   0  0  0  0  0  0  0  0  0  0  0  0
    8.8959   -0.1378   -0.3494 C   0  0  3  0  0  0  0  0  0  0  0  0
    7.7149   -0.6805    0.2931 O   0  0  0  0  0  0  0  0  0  0  0  0
    9.9506    0.2500    0.5326 O   0  0  0  0  0  0  0  0  0  0  0  0
    9.2188    1.2462   -0.0032 C   0  0  0  0  0  0  0  0  0  0  0  0
    8.5398    2.0849    0.5455 O   0  0  0  0  0  0  0  0  0  0  0  0
    2.7263   -3.1111    2.0158 C   0  0  0  0  0  0  0  0  0  0  0  0
    2.2571   -2.1820    1.3775 O   0  0  0  0  0  0  0  0  0  0  0  0
    2.8756   -3.0311    3.5131 C   0  0  0  0  0  0  0  0  0  0  0  0
    2.1511   -2.2928    4.1617 O   0  0  0  0  0  0  0  0  0  0  0  0
    3.8832   -3.9279    4.2039 C   0  0  0  0  0  0  0  0  0  0  0  0
    4.0039   -3.9355    5.4177 O   0  0  0  0  0  0  0  0  0  0  0  0
  1  2  1  0  0  0  0
  2  3  2  0  0  0  0
  3  4  1  0  0  0  0
  3 50  1  0  0  0  0
  4  5  1  0  0  0  0
  5  6  1  6  0  0  0
  5 46  1  0  0  0  0
  6  7  1  0  0  0  0
  7  8  2  0  0  0  0
  7 12  1  0  0  0  0
  8  9  1  0  0  0  0
  8 25  1  0  0  0  0
  9 10  1  0  0  0  0
 10 11  2  0  0  0  0
 10 21  1  0  0  0  0
 11 12  1  0  0  0  0
 11 13  1  0  0  0  0
 13 14  1  0  0  0  0
 13 19  2  0  0  0  0
 14 15  1  0  0  0  0
 15 16  2  0  0  0  0
 15 17  1  0  0  0  0
 17 18  1  0  0  0  0
 18 19  1  0  0  0  0
 19 20  1  0  0  0  0
 20 21  2  0  0  0  0
 20 22  1  0  0  0  0
 22 23  1  0  0  0  0
 22 24  1  0  0  0  0
 23 24  1  0  0  0  0
 25 26  2  0  0  0  0
 25 30  1  0  0  0  0
 26 27  1  0  0  0  0
 27 28  2  0  0  0  0
 28 29  1  0  0  0  0
 29 30  2  0  0  0  0
 29 34  1  0  0  0  0
 30 31  1  0  0  0  0
 31 32  2  0  0  0  0
 32 33  1  0  0  0  0
 32 39  1  0  0  0  0
 33 34  2  0  0  0  0
 33 35  1  0  0  0  0
 36 35  1  6  0  0  0
 36 37  1  0  0  0  0
 36 41  1  0  0  0  0
 37 38  2  0  0  0  0
 37 39  1  0  0  0  0
 39 40  2  0  0  0  0
 41 42  1  0  0  0  0
 41 43  1  0  0  0  0
 41 44  1  0  0  0  0
 43 44  1  0  0  0  0
 44 45  2  0  0  0  0
 46 47  2  0  0  0  0
 46 48  1  0  0  0  0
 48 49  2  0  0  0  0
 48 50  1  0  0  0  0
 50 51  2  0  0  0  0
M  END
$$$$