
 OpenBabel11222023153D

 54 63  0  0  1  0  0  0  0  0999 V2000
   -6.4329  -17.5383    8.4328 O   0  0  0  0  0  0  0  0  0  0  0  0
   -6.4846  -16.7860    9.5825 C   0  0  0  0  0  0  0  0  0  0  0  0
   -5.7987  -15.6468    9.7376 C   0  0  0  0  0  0  0  0  0  0  0  0
   -4.9457  -15.1878    8.7514 O   0  0  0  0  0  0  0  0  0  0  0  0
   -5.1435  -13.8051    8.4613 C   0  0  2  0  0  0  0  0  0  0  0  0
   -4.3917  -13.4116    7.2897 O   0  0  0  0  0  0  0  0  0  0  0  0
   -4.8682  -13.8381    6.0524 C   0  0  0  0  0  0  0  0  0  0  0  0
   -4.6980  -13.1085    4.9206 C   0  0  0  0  0  0  0  0  0  0  0  0
   -5.0560  -13.6244    3.6651 O   0  0  0  0  0  0  0  0  0  0  0  0
   -5.6389  -14.8739    3.5425 C   0  0  0  0  0  0  0  0  0  0  0  0
   -5.9067  -15.6346    4.6150 C   0  0  0  0  0  0  0  0  0  0  0  0
   -5.4961  -15.2155    5.9920 C   0  0  0  0  0  0  0  0  0  0  0  0
   -6.6256  -16.9490    4.4953 C   0  0  3  0  0  0  0  0  0  0  0  0
   -7.7979  -16.8827    5.2924 O   0  0  0  0  0  0  0  0  0  0  0  0
   -8.4826  -18.0549    5.3834 C   0  0  0  0  0  0  0  0  0  0  0  0
   -9.2034  -18.3167    6.3306 O   0  0  0  0  0  0  0  0  0  0  0  0
   -8.2566  -18.9127    4.3546 O   0  0  0  0  0  0  0  0  0  0  0  0
   -8.0460  -18.3468    3.0683 C   0  0  3  0  0  0  0  0  0  0  0  0
   -7.1086  -17.1868    3.1104 C   0  0  0  0  0  0  0  0  0  0  0  0
   -6.7641  -16.3940    2.0690 C   0  0  0  0  0  0  0  0  0  0  0  0
   -5.9462  -15.2951    2.2726 O   0  3  0  0  0  0  0  0  0  0  0  0
   -7.2179  -16.6032    0.6737 C   0  0  0  0  0  0  0  0  0  0  0  0
   -6.5949  -15.8778   -0.4039 O   0  0  0  0  0  0  0  0  0  0  0  0
   -6.4120  -17.3009   -0.2825 O   0  0  0  0  0  0  0  0  0  0  0  0
   -7.4324  -19.3103    2.2402 O   0  0  0  0  0  0  0  0  0  0  0  0
   -4.0458  -11.7600    4.7964 C   0  0  0  0  0  0  0  0  0  0  0  0
   -3.2226  -11.5707    3.6773 C   0  0  0  0  0  0  0  0  0  0  0  0
   -2.5869  -10.3620    3.4974 C   0  0  0  0  0  0  0  0  0  0  0  0
   -1.8892  -10.1728    2.3699 F   0  0  0  0  0  0  0  0  0  0  0  0
   -2.6486   -9.3520    4.3704 N   0  0  0  0  0  0  0  0  0  0  0  0
   -3.4212   -9.4909    5.4566 C   0  0  0  0  0  0  0  0  0  0  0  0
   -4.2090  -10.6521    5.6814 C   0  0  0  0  0  0  0  0  0  0  0  0
   -5.1208  -10.6148    6.7585 C   0  0  0  0  0  0  0  0  0  0  0  0
   -5.1165   -9.5700    7.6904 C   0  0  0  0  0  0  0  0  0  0  0  0
   -4.2670   -8.4940    7.5229 C   0  0  0  0  0  0  0  0  0  0  0  0
   -3.4671   -8.4477    6.3853 C   0  0  0  0  0  0  0  0  0  0  0  0
   -2.7114   -7.3540    6.1846 F   0  0  0  0  0  0  0  0  0  0  0  0
   -4.2110   -7.4371    8.3898 O   0  0  0  0  0  0  0  0  0  0  0  0
   -4.6729   -7.7226    9.7296 C   0  0  1  0  0  0  0  0  0  0  0  0
   -5.9347   -8.4711    9.8369 C   0  0  0  0  0  0  0  0  0  0  0  0
   -6.8445   -8.1837   10.5939 O   0  0  0  0  0  0  0  0  0  0  0  0
   -6.0069   -9.6262    8.8590 C   0  0  0  0  0  0  0  0  0  0  0  0
   -6.7676  -10.5711    9.0219 O   0  0  0  0  0  0  0  0  0  0  0  0
   -3.6969   -8.0327   10.6900 O   0  0  0  0  0  0  0  0  0  0  0  0
   -4.3661   -6.7325   10.8143 C   0  0  1  0  0  0  0  0  0  0  0  0
   -3.7267   -5.5629   10.1571 O   0  0  0  0  0  0  0  0  0  0  0  0
   -3.4004   -5.8406   11.3984 C   0  0  0  0  0  0  0  0  0  0  0  0
   -3.3675   -5.1775   12.4046 O   0  0  0  0  0  0  0  0  0  0  0  0
   -4.7175  -12.9738    9.6674 C   0  0  0  0  0  0  0  0  0  0  0  0
   -4.0940  -11.9208    9.6178 O   0  0  0  0  0  0  0  0  0  0  0  0
   -5.1896  -13.5524   10.9880 C   0  0  0  0  0  0  0  0  0  0  0  0
   -4.9515  -12.9669   12.0323 O   0  0  0  0  0  0  0  0  0  0  0  0
   -5.9435  -14.8723   11.0017 C   0  0  0  0  0  0  0  0  0  0  0  0
   -6.6211  -15.2314   11.9480 O   0  0  0  0  0  0  0  0  0  0  0  0
  1  2  1  0  0  0  0
  2  3  2  0  0  0  0
  3  4  1  0  0  0  0
  3 53  1  0  0  0  0
  4  5  1  0  0  0  0
  5  6  1  6  0  0  0
  5 49  1  0  0  0  0
  6  7  1  0  0  0  0
  7  8  2  0  0  0  0
  7 12  1  0  0  0  0
  8  9  1  0  0  0  0
  8 26  1  0  0  0  0
  9 10  1  0  0  0  0
 10 11  2  0  0  0  0
 10 21  1  0  0  0  0
 11 12  1  0  0  0  0
 11 13  1  0  0  0  0
 13 14  1  0  0  0  0
 13 19  1  0  0  0  0
 14 15  1  0  0  0  0
 15 16  2  0  0  0  0
 15 17  1  0  0  0  0
 17 18  1  0  0  0  0
 18 19  1  0  0  0  0
 18 25  1  0  0  0  0
 19 20  2  0  0  0  0
 20 21  1  0  0  0  0
 20 22  1  0  0  0  0
 22 23  1  0  0  0  0
 22 24  1  0  0  0  0
 23 24  1  0  0  0  0
 26 27  2  0  0  0  0
 26 32  1  0  0  0  0
 27 28  1  0  0  0  0
 28 29  1  0  0  0  0
 28 30  2  0  0  0  0
 30 31  1  0  0  0  0
 31 32  2  0  0  0  0
 31 36  1  0  0  0  0
 32 33  1  0  0  0  0
 33 34  2  0  0  0  0
 34 35  1  0  0  0  0
 34 42  1  0  0  0  0
 35 36  2  0  0  0  0
 35 38  1  0  0  0  0
 36 37  1  0  0  0  0
 39 38  1  6  0  0  0
 39 40  1  0  0  0  0
 39 44  1  0  0  0  0
 39 45  1  0  0  0  0
 40 41  2  0  0  0  0
 40 42  1  0  0  0  0
 42 43  2  0  0  0  0
 45 44  1  6  0  0  0
 45 46  1  0  0  0  0
 45 47  1  0  0  0  0
 46 47  1  0  0  0  0
 47 48  2  0  0  0  0
 49 50  2  0  0  0  0
 49 51  1  0  0  0  0
 51 52  2  0  0  0  0
 51 53  1  0  0  0  0
 53 54  2  0  0  0  0
M  CHG  1  21   1
M  END
$$$$