
 OpenBabel11142001283D

 52 60  0  0  1  0  0  0  0  0999 V2000
    5.9633    5.5313    3.4302 O   0  0  0  0  0  0  0  0  0  0  0  0
    6.2570    4.3442    2.8101 C   0  0  0  0  0  0  0  0  0  0  0  0
    5.3625    3.6634    2.0820 C   0  0  0  0  0  0  0  0  0  0  0  0
    4.0579    4.1004    1.9451 O   0  0  0  0  0  0  0  0  0  0  0  0
    3.5309    3.9185    0.6239 C   0  0  2  0  0  0  0  0  0  0  0  0
    2.2932    4.6237    0.4440 O   0  0  0  0  0  0  0  0  0  0  0  0
    2.3062    6.0140    0.5659 C   0  0  0  0  0  0  0  0  0  0  0  0
    1.1794    6.7445    0.3988 C   0  0  0  0  0  0  0  0  0  0  0  0
    1.1276    8.1319    0.5554 O   0  0  0  0  0  0  0  0  0  0  0  0
    2.2842    8.8204    0.9020 C   0  0  0  0  0  0  0  0  0  0  0  0
    3.4515    8.1837    1.0469 C   0  0  0  0  0  0  0  0  0  0  0  0
    3.5984    6.7177    0.8949 C   0  0  0  0  0  0  0  0  0  0  0  0
    4.6565    8.9685    1.4148 C   0  0  0  0  0  0  0  0  0  0  0  0
    5.7994    8.3697    1.5528 N   0  0  0  0  0  0  0  0  0  0  0  0
    6.8644    9.1376    1.9048 C   0  0  0  0  0  0  0  0  0  0  0  0
    7.9564    8.4831    2.0566 N   0  0  0  0  0  0  0  0  0  0  0  0
    6.8926   10.4813    2.1120 N   0  0  0  0  0  0  0  0  0  0  0  0
    5.7676   11.0753    1.9612 C   0  0  0  0  0  0  0  0  0  0  0  0
    4.5012   10.4354    1.6055 C   0  0  0  0  0  0  0  0  0  0  0  0
    3.2790   10.9855    1.4294 C   0  0  0  0  0  0  0  0  0  0  0  0
    2.1952   10.1741    1.0973 N   0  0  0  0  0  0  0  0  0  0  0  0
    2.9766   12.4324    1.5506 C   0  0  0  0  0  0  0  0  0  0  0  0
    3.0696   13.3150    0.4210 O   0  0  0  0  0  0  0  0  0  0  0  0
    1.7817   13.0061    0.9859 O   0  0  0  0  0  0  0  0  0  0  0  0
    5.7375   12.3964    2.1534 O   0  0  0  0  0  0  0  0  0  0  0  0
   -0.1056    6.1464    0.0027 C   0  0  0  0  0  0  0  0  0  0  0  0
   -0.3031    6.0954   -1.3319 N   0  0  0  0  0  0  0  0  0  0  0  0
   -1.3986    5.5620   -1.7939 N   0  0  0  0  0  0  0  0  0  0  0  0
   -2.3124    5.0494   -1.0040 N   0  0  0  0  0  0  0  0  0  0  0  0
   -2.1590    5.0846    0.3233 C   0  0  0  0  0  0  0  0  0  0  0  0
   -1.0411    5.6655    0.9144 C   0  0  0  0  0  0  0  0  0  0  0  0
   -0.9433    5.7274    2.3279 C   0  0  0  0  0  0  0  0  0  0  0  0
   -1.9484    5.1729    3.1233 C   0  0  0  0  0  0  0  0  0  0  0  0
   -3.0289    4.5292    2.5340 C   0  0  0  0  0  0  0  0  0  0  0  0
   -3.1362    4.5198    1.1417 C   0  0  0  0  0  0  0  0  0  0  0  0
   -4.0217    3.8865    3.2230 O   0  0  0  0  0  0  0  0  0  0  0  0
   -3.7353    3.5548    4.5908 C   0  0  2  0  0  0  0  0  0  0  0  0
   -3.0348    4.6586    5.3442 C   0  0  0  0  0  0  0  0  0  0  0  0
   -3.3383    5.0388    6.4656 O   0  0  0  0  0  0  0  0  0  0  0  0
   -1.8847    5.2793    4.5862 C   0  0  0  0  0  0  0  0  0  0  0  0
   -0.9769    5.8578    5.1599 O   0  0  0  0  0  0  0  0  0  0  0  0
   -2.9776    2.2664    4.6864 C   0  0  1  0  0  0  0  0  0  0  0  0
   -1.6849    2.2189    4.0342 O   0  0  0  0  0  0  0  0  0  0  0  0
   -3.0396    1.6409    5.9698 O   0  0  0  0  0  0  0  0  0  0  0  0
   -3.6020    0.9702    4.9461 C   0  0  0  0  0  0  0  0  0  0  0  0
   -3.3386   -0.1244    4.5012 O   0  0  0  0  0  0  0  0  0  0  0  0
    3.3579    2.4170    0.4467 C   0  0  0  0  0  0  0  0  0  0  0  0
    2.3480    1.8401    0.0737 O   0  0  0  0  0  0  0  0  0  0  0  0
    4.6251    1.6523    0.7810 C   0  0  0  0  0  0  0  0  0  0  0  0
    4.7225    0.4621    0.5291 O   0  0  0  0  0  0  0  0  0  0  0  0
    5.7796    2.3925    1.4339 C   0  0  0  0  0  0  0  0  0  0  0  0
    6.9296    1.9941    1.3760 O   0  0  0  0  0  0  0  0  0  0  0  0
  1  2  1  0  0  0  0
  2  3  2  0  0  0  0
  3  4  1  0  0  0  0
  3 51  1  0  0  0  0
  4  5  1  0  0  0  0
  5  6  1  1  0  0  0
  5 47  1  0  0  0  0
  6  7  1  0  0  0  0
  7  8  2  0  0  0  0
  7 12  1  0  0  0  0
  8  9  1  0  0  0  0
  8 26  1  0  0  0  0
  9 10  1  0  0  0  0
 10 11  2  0  0  0  0
 10 21  1  0  0  0  0
 11 12  1  0  0  0  0
 11 13  1  0  0  0  0
 13 14  2  0  0  0  0
 13 19  1  0  0  0  0
 14 15  1  0  0  0  0
 15 16  2  0  0  0  0
 15 17  1  0  0  0  0
 17 18  2  0  0  0  0
 18 19  1  0  0  0  0
 18 25  1  0  0  0  0
 19 20  2  0  0  0  0
 20 21  1  0  0  0  0
 20 22  1  0  0  0  0
 22 23  1  0  0  0  0
 22 24  1  0  0  0  0
 23 24  1  0  0  0  0
 26 27  2  0  0  0  0
 26 31  1  0  0  0  0
 27 28  1  0  0  0  0
 28 29  2  0  0  0  0
 29 30  1  0  0  0  0
 30 31  2  0  0  0  0
 30 35  1  0  0  0  0
 31 32  1  0  0  0  0
 32 33  2  0  0  0  0
 33 34  1  0  0  0  0
 33 40  1  0  0  0  0
 34 35  2  0  0  0  0
 34 36  1  0  0  0  0
 37 36  1  6  0  0  0
 37 38  1  0  0  0  0
 37 42  1  0  0  0  0
 38 39  2  0  0  0  0
 38 40  1  0  0  0  0
 40 41  2  0  0  0  0
 42 43  1  6  0  0  0
 42 44  1  0  0  0  0
 42 45  1  0  0  0  0
 44 45  1  0  0  0  0
 45 46  2  0  0  0  0
 47 48  2  0  0  0  0
 47 49  1  0  0  0  0
 49 50  2  0  0  0  0
 49 51  1  0  0  0  0
 51 52  2  0  0  0  0
M  END
$$$$