
 OpenBabel11152013173D

 54 62  0  0  1  0  0  0  0  0999 V2000
   -0.8429    6.4284   -6.7630 O   0  0  0  0  0  0  0  0  0  0  0  0
   -1.4187    5.2130   -6.4928 C   0  0  0  0  0  0  0  0  0  0  0  0
   -0.9036    4.3558   -5.6010 C   0  0  0  0  0  0  0  0  0  0  0  0
    0.2762    4.6763   -4.9465 O   0  0  0  0  0  0  0  0  0  0  0  0
    0.6569    3.9140   -3.8026 C   0  0  2  0  0  0  0  0  0  0  0  0
    2.0442    4.1050   -3.4578 O   0  0  0  0  0  0  0  0  0  0  0  0
    2.4650    5.3944   -3.1421 C   0  0  0  0  0  0  0  0  0  0  0  0
    3.7212    5.8210   -3.4053 C   0  0  0  0  0  0  0  0  0  0  0  0
    4.1521    7.1272   -3.1456 O   0  0  0  0  0  0  0  0  0  0  0  0
    3.2275    8.0856   -2.7276 C   0  0  0  0  0  0  0  0  0  0  0  0
    1.9914    7.7291   -2.3519 C   0  0  0  0  0  0  0  0  0  0  0  0
    1.5165    6.3125   -2.4168 C   0  0  0  0  0  0  0  0  0  0  0  0
    0.9739    8.7364   -1.9377 C   0  0  3  0  0  0  0  0  0  0  0  0
    0.6225    8.4720   -0.5875 O   0  0  0  0  0  0  0  0  0  0  0  0
   -0.2205    9.3248    0.0453 C   0  0  0  0  0  0  0  0  0  0  0  0
   -0.7915    9.0044    1.0788 O   0  0  0  0  0  0  0  0  0  0  0  0
   -0.3853   10.5507   -0.5046 O   0  0  0  0  0  0  0  0  0  0  0  0
    0.3330   11.0254   -1.6421 C   0  0  3  0  0  0  0  0  0  0  0  0
    1.4485   10.1284   -2.0271 C   0  0  0  0  0  0  0  0  0  0  0  0
    2.7026   10.4477   -2.4185 C   0  0  0  0  0  0  0  0  0  0  0  0
    3.6227    9.4236   -2.7306 O   0  0  0  0  0  0  0  0  0  0  0  0
    3.2240   11.8310   -2.5810 C   0  0  0  0  0  0  0  0  0  0  0  0
    2.3887   12.9423   -2.9514 O   0  0  0  0  0  0  0  0  0  0  0  0
    2.9642   12.8762   -1.6298 O   0  0  0  0  0  0  0  0  0  0  0  0
   -0.5682   11.0766   -2.7379 O   0  0  0  0  0  0  0  0  0  0  0  0
    4.7683    4.9673   -4.0013 C   0  0  0  0  0  0  0  0  0  0  0  0
    4.7757    4.9611   -5.3500 N   0  0  0  0  0  0  0  0  0  0  0  0
    5.6946    4.2849   -5.9749 N   0  0  0  0  0  0  0  0  0  0  0  0
    6.6360    3.6270   -5.3363 N   0  0  0  0  0  0  0  0  0  0  0  0
    6.6800    3.6074   -3.9952 C   0  0  0  0  0  0  0  0  0  0  0  0
    5.7208    4.2787   -3.2408 C   0  0  0  0  0  0  0  0  0  0  0  0
    5.7843    4.2234   -1.8197 C   0  0  0  0  0  0  0  0  0  0  0  0
    6.8095    3.5205   -1.1721 C   0  0  0  0  0  0  0  0  0  0  0  0
    6.8384    3.4285    0.2929 C   0  0  0  0  0  0  0  0  0  0  0  0
    6.0331    4.0120    0.9988 O   0  0  0  0  0  0  0  0  0  0  0  0
    7.9076    2.5384    0.8821 C   0  0  0  0  0  0  0  0  0  0  0  0
    7.7689    2.0147    1.9778 O   0  0  0  0  0  0  0  0  0  0  0  0
    9.1301    2.3879    0.0085 C   0  0  1  0  0  0  0  0  0  0  0  0
    8.8604    2.2026   -1.3884 O   0  0  0  0  0  0  0  0  0  0  0  0
    7.7926    2.8850   -1.9129 C   0  0  0  0  0  0  0  0  0  0  0  0
    7.7013    2.9229   -3.3111 C   0  0  0  0  0  0  0  0  0  0  0  0
    8.6695    2.2665   -4.0440 O   0  0  0  0  0  0  0  0  0  0  0  0
   10.0717    3.5316    0.2129 C   0  0  1  0  0  0  0  0  0  0  0  0
    9.5545    4.8499   -0.0842 O   0  0  0  0  0  0  0  0  0  0  0  0
   10.8853    3.4304    1.3826 O   0  0  0  0  0  0  0  0  0  0  0  0
   11.5295    3.4072    0.1983 C   0  0  0  0  0  0  0  0  0  0  0  0
   12.3708    4.1573   -0.2377 O   0  0  0  0  0  0  0  0  0  0  0  0
    0.3801    2.4379   -4.0822 C   0  0  0  0  0  0  0  0  0  0  0  0
    1.2523    1.5739   -4.1682 O   0  0  0  0  0  0  0  0  0  0  0  0
   -1.1067    2.1855   -4.2550 C   0  0  3  0  0  0  0  0  0  0  0  0
   -1.6331    3.0529   -5.3899 C   0  0  0  0  0  0  0  0  0  0  0  0
   -2.6418    2.7922   -6.0478 O   0  0  0  0  0  0  0  0  0  0  0  0
   -1.7572    2.5192   -3.0939 F   0  0  0  0  0  0  0  0  0  0  0  0
   -1.4384    0.4132   -4.5660 S   0  0  0  0  0  0  0  0  0  0  0  0
  1  2  1  0  0  0  0
  2  3  2  0  0  0  0
  3  4  1  0  0  0  0
  3 51  1  0  0  0  0
  4  5  1  0  0  0  0
  5  6  1  6  0  0  0
  5 48  1  0  0  0  0
  6  7  1  0  0  0  0
  7  8  2  0  0  0  0
  7 12  1  0  0  0  0
  8  9  1  0  0  0  0
  8 26  1  0  0  0  0
  9 10  1  0  0  0  0
 10 11  2  0  0  0  0
 10 21  1  0  0  0  0
 11 12  1  0  0  0  0
 11 13  1  0  0  0  0
 13 14  1  0  0  0  0
 13 19  1  0  0  0  0
 14 15  1  0  0  0  0
 15 16  2  0  0  0  0
 15 17  1  0  0  0  0
 17 18  1  0  0  0  0
 18 19  1  0  0  0  0
 18 25  1  0  0  0  0
 19 20  2  0  0  0  0
 20 21  1  0  0  0  0
 20 22  1  0  0  0  0
 22 23  1  0  0  0  0
 22 24  1  0  0  0  0
 23 24  1  0  0  0  0
 26 27  2  0  0  0  0
 26 31  1  0  0  0  0
 27 28  1  0  0  0  0
 28 29  2  0  0  0  0
 29 30  1  0  0  0  0
 30 31  2  0  0  0  0
 30 41  1  0  0  0  0
 31 32  1  0  0  0  0
 32 33  2  0  0  0  0
 33 34  1  0  0  0  0
 33 40  1  0  0  0  0
 34 35  2  0  0  0  0
 34 36  1  0  0  0  0
 36 37  2  0  0  0  0
 38 36  1  1  0  0  0
 38 39  1  0  0  0  0
 38 43  1  0  0  0  0
 39 40  1  0  0  0  0
 40 41  2  0  0  0  0
 41 42  1  0  0  0  0
 43 44  1  6  0  0  0
 43 45  1  0  0  0  0
 43 46  1  0  0  0  0
 45 46  1  0  0  0  0
 46 47  2  0  0  0  0
 48 49  2  0  0  0  0
 48 50  1  0  0  0  0
 50 51  1  0  0  0  0
 50 53  1  0  0  0  0
 50 54  1  0  0  0  0
 51 52  2  0  0  0  0
M  END
$$$$