
 OpenBabel11212016203D

 53 61  0  0  1  0  0  0  0  0999 V2000
    7.3313   -2.4707    3.0800 O   0  0  0  0  0  0  0  0  0  0  0  0
    7.0259   -1.1335    3.0216 C   0  0  0  0  0  0  0  0  0  0  0  0
    5.7970   -0.6607    3.2626 C   0  0  0  0  0  0  0  0  0  0  0  0
    4.7688   -1.5431    3.5519 O   0  0  0  0  0  0  0  0  0  0  0  0
    3.5595   -1.0096    4.0634 C   0  0  2  0  0  0  0  0  0  0  0  0
    2.4983   -1.9818    3.9425 O   0  0  0  0  0  0  0  0  0  0  0  0
    2.6103   -3.1919    4.6045 C   0  0  0  0  0  0  0  0  0  0  0  0
    2.0379   -4.3190    4.1134 C   0  0  0  0  0  0  0  0  0  0  0  0
    2.1361   -5.5385    4.8059 O   0  0  0  0  0  0  0  0  0  0  0  0
    2.8221   -5.6245    6.0228 C   0  0  0  0  0  0  0  0  0  0  0  0
    3.3449   -4.5282    6.5993 C   0  0  0  0  0  0  0  0  0  0  0  0
    3.3072   -3.1848    5.9409 C   0  0  0  0  0  0  0  0  0  0  0  0
    4.0085   -4.5692    7.9461 C   0  0  3  0  0  0  0  0  0  0  0  0
    3.1913   -3.8199    8.8261 O   0  0  0  0  0  0  0  0  0  0  0  0
    3.5891   -3.7284   10.1235 C   0  0  0  0  0  0  0  0  0  0  0  0
    3.1722   -2.8453   10.8532 O   0  0  0  0  0  0  0  0  0  0  0  0
    4.4644   -4.6780   10.5370 O   0  0  0  0  0  0  0  0  0  0  0  0
    4.7092   -5.9165    9.8474 C   0  0  0  0  0  0  0  0  0  0  0  0
    4.0720   -5.9427    8.4978 C   0  0  0  0  0  0  0  0  0  0  0  0
    3.5625   -7.0176    7.8534 C   0  0  0  0  0  0  0  0  0  0  0  0
    2.9313   -6.8650    6.6215 O   0  3  0  0  0  0  0  0  0  0  0  0
    3.6436   -8.4065    8.3725 C   0  0  0  0  0  0  0  0  0  0  0  0
    3.0903   -9.5004    7.6213 O   0  0  0  0  0  0  0  0  0  0  0  0
    4.5178   -9.3627    7.7580 O   0  0  0  0  0  0  0  0  0  0  0  0
    1.2566   -4.3688    2.8153 C   0  0  0  0  0  0  0  0  0  0  0  0
    0.5489   -3.2324    2.4042 C   0  0  0  0  0  0  0  0  0  0  0  0
   -0.1077   -3.1912    1.2415 N   0  3  0  0  0  0  0  0  0  0  0  0
   -0.7359   -2.0532    0.8861 F   0  0  0  0  0  0  0  0  0  0  0  0
   -0.1690   -4.2198    0.4248 N   0  0  0  0  0  0  0  0  0  0  0  0
    0.4377   -5.3602    0.7506 C   0  0  0  0  0  0  0  0  0  0  0  0
    1.1671   -5.5021    1.9546 C   0  0  0  0  0  0  0  0  0  0  0  0
    1.7550   -6.7675    2.1934 C   0  0  0  0  0  0  0  0  0  0  0  0
    1.6370   -7.8280    1.2835 C   0  0  0  0  0  0  0  0  0  0  0  0
    2.2399   -9.1183    1.5974 C   0  0  0  0  0  0  0  0  0  0  0  0
    2.5474   -9.3703    2.7544 O   0  0  0  0  0  0  0  0  0  0  0  0
    2.4744  -10.0685    0.4443 C   0  0  0  0  0  0  0  0  0  0  0  0
    3.0895  -11.1056    0.6415 O   0  0  0  0  0  0  0  0  0  0  0  0
    1.9865   -9.5774   -0.9107 C   0  0  1  0  0  0  0  0  0  0  0  0
    0.8952   -8.6344   -0.8649 O   0  0  0  0  0  0  0  0  0  0  0  0
    0.9651   -7.6669    0.0947 C   0  0  0  0  0  0  0  0  0  0  0  0
    0.3513   -6.4373   -0.1407 C   0  0  0  0  0  0  0  0  0  0  0  0
   -0.3240   -6.2655   -1.2886 F   0  0  0  0  0  0  0  0  0  0  0  0
    3.1371   -9.1011   -1.7732 C   0  0  1  0  0  0  0  0  0  0  0  0
    4.1476  -10.0750   -2.0894 O   0  0  0  0  0  0  0  0  0  0  0  0
    2.8033   -8.2044   -2.8397 O   0  0  0  0  0  0  0  0  0  0  0  0
    3.5589   -7.7113   -1.8489 C   0  0  0  0  0  0  0  0  0  0  0  0
    3.3913   -6.7735   -1.0885 O   0  0  0  0  0  0  0  0  0  0  0  0
    3.1053    0.1984    3.2742 C   0  0  0  0  0  0  0  0  0  0  0  0
    2.0474    0.3072    2.6716 O   0  0  0  0  0  0  0  0  0  0  0  0
    4.1604    1.2639    3.2809 C   0  0  0  0  0  0  0  0  0  0  0  0
    3.8526    2.4201    3.5032 O   0  0  0  0  0  0  0  0  0  0  0  0
    5.5988    0.8172    3.1322 C   0  0  0  0  0  0  0  0  0  0  0  0
    6.4971    1.6115    2.9187 O   0  0  0  0  0  0  0  0  0  0  0  0
  1  2  1  0  0  0  0
  2  3  2  0  0  0  0
  3  4  1  0  0  0  0
  3 52  1  0  0  0  0
  4  5  1  0  0  0  0
  5  6  1  6  0  0  0
  5 48  1  0  0  0  0
  6  7  1  0  0  0  0
  7  8  2  0  0  0  0
  7 12  1  0  0  0  0
  8  9  1  0  0  0  0
  8 25  1  0  0  0  0
  9 10  1  0  0  0  0
 10 11  2  0  0  0  0
 10 21  1  0  0  0  0
 11 12  1  0  0  0  0
 11 13  1  0  0  0  0
 13 14  1  0  0  0  0
 13 19  1  0  0  0  0
 14 15  1  0  0  0  0
 15 16  2  0  0  0  0
 15 17  1  0  0  0  0
 17 18  1  0  0  0  0
 18 19  1  0  0  0  0
 19 20  2  0  0  0  0
 20 21  1  0  0  0  0
 20 22  1  0  0  0  0
 22 23  1  0  0  0  0
 22 24  1  0  0  0  0
 23 24  1  0  0  0  0
 25 26  2  0  0  0  0
 25 31  1  0  0  0  0
 26 27  1  0  0  0  0
 27 28  1  0  0  0  0
 27 29  2  0  0  0  0
 29 30  1  0  0  0  0
 30 31  2  0  0  0  0
 30 41  1  0  0  0  0
 31 32  1  0  0  0  0
 32 33  2  0  0  0  0
 33 34  1  0  0  0  0
 33 40  1  0  0  0  0
 34 35  2  0  0  0  0
 34 36  1  0  0  0  0
 36 37  2  0  0  0  0
 38 36  1  1  0  0  0
 38 39  1  0  0  0  0
 38 43  1  0  0  0  0
 39 40  1  0  0  0  0
 40 41  2  0  0  0  0
 41 42  1  0  0  0  0
 43 44  1  6  0  0  0
 43 45  1  0  0  0  0
 43 46  1  0  0  0  0
 45 46  1  0  0  0  0
 46 47  2  0  0  0  0
 48 49  2  0  0  0  0
 48 50  1  0  0  0  0
 50 51  2  0  0  0  0
 50 52  1  0  0  0  0
 52 53  2  0  0  0  0
M  CHG  2  21   1  27   1
M  END
$$$$