
 OpenBabel11222018003D

 55 63  0  0  1  0  0  0  0  0999 V2000
   -1.8478    2.5406   -3.7033 O   0  0  0  0  0  0  0  0  0  0  0  0
   -1.2232    2.1994   -2.5304 C   0  0  0  0  0  0  0  0  0  0  0  0
   -0.0870    1.4943   -2.5061 C   0  0  0  0  0  0  0  0  0  0  0  0
    0.4961    1.0551   -3.6875 O   0  0  0  0  0  0  0  0  0  0  0  0
    1.8549    0.6493   -3.5882 C   0  0  2  0  0  0  0  0  0  0  0  0
    2.3251    0.0981   -4.8517 O   0  0  0  0  0  0  0  0  0  0  0  0
    2.3638    0.8632   -6.0120 C   0  0  0  0  0  0  0  0  0  0  0  0
    2.3634    0.2884   -7.2455 C   0  0  0  0  0  0  0  0  0  0  0  0
    2.3528    1.0704   -8.4149 O   0  0  0  0  0  0  0  0  0  0  0  0
    2.4063    2.4643   -8.3583 C   0  0  0  0  0  0  0  0  0  0  0  0
    2.5266    3.0880   -7.1763 C   0  0  0  0  0  0  0  0  0  0  0  0
    2.4992    2.3575   -5.8685 C   0  0  0  0  0  0  0  0  0  0  0  0
    2.6552    4.5749   -7.0694 C   0  0  3  0  0  0  0  0  0  0  0  0
    3.9515    4.8403   -6.5692 O   0  0  0  0  0  0  0  0  0  0  0  0
    4.2837    6.1476   -6.3961 C   0  0  0  0  0  0  0  0  0  0  0  0
    5.2398    6.4725   -5.7131 O   0  0  0  0  0  0  0  0  0  0  0  0
    3.4843    7.0442   -7.0231 O   0  0  0  0  0  0  0  0  0  0  0  0
    2.6958    6.7134   -8.1649 C   0  0  3  0  0  0  0  0  0  0  0  0
    2.5855    5.2451   -8.3837 C   0  0  0  0  0  0  0  0  0  0  0  0
    2.4432    4.5706   -9.5477 C   0  0  0  0  0  0  0  0  0  0  0  0
    2.3509    3.1790   -9.5429 O   0  3  0  0  0  0  0  0  0  0  0  0
    2.3433    5.2208  -10.8793 C   0  0  0  0  0  0  0  0  0  0  0  0
    2.1753    4.4225  -12.0652 O   0  0  0  0  0  0  0  0  0  0  0  0
    1.0993    5.2537  -11.5908 O   0  0  0  0  0  0  0  0  0  0  0  0
    1.3690    7.1449   -7.9400 O   0  0  0  0  0  0  0  0  0  0  0  0
    2.3570   -1.2074   -7.4810 C   0  0  0  0  0  0  0  0  0  0  0  0
    2.9753   -2.0447   -6.5450 C   0  0  0  0  0  0  0  0  0  0  0  0
    2.9057   -3.3758   -6.6399 N   0  3  0  0  0  0  0  0  0  0  0  0
    3.5553   -4.1324   -5.7340 F   0  0  0  0  0  0  0  0  0  0  0  0
    2.2154   -3.9824   -7.5812 N   0  0  0  0  0  0  0  0  0  0  0  0
    1.6545   -3.2654   -8.5540 C   0  0  0  0  0  0  0  0  0  0  0  0
    1.7683   -1.8605   -8.6054 C   0  0  0  0  0  0  0  0  0  0  0  0
    1.3055   -1.2389   -9.7927 C   0  0  0  0  0  0  0  0  0  0  0  0
    0.6809   -1.9580  -10.8234 C   0  0  0  0  0  0  0  0  0  0  0  0
    0.3444   -1.2816  -12.0723 C   0  0  0  0  0  0  0  0  0  0  0  0
    0.7336   -0.1381  -12.2658 O   0  0  0  0  0  0  0  0  0  0  0  0
   -0.4680   -2.0571  -13.0840 C   0  0  0  0  0  0  0  0  0  0  0  0
   -0.6917   -1.5721  -14.1816 O   0  0  0  0  0  0  0  0  0  0  0  0
   -1.0386   -3.3770  -12.5961 C   0  0  1  0  0  0  0  0  0  0  0  0
   -0.2630   -4.0515  -11.5874 O   0  0  0  0  0  0  0  0  0  0  0  0
    0.4298   -3.3014  -10.6862 C   0  0  0  0  0  0  0  0  0  0  0  0
    0.9503   -3.9385   -9.5597 C   0  0  0  0  0  0  0  0  0  0  0  0
    0.7847   -5.2655   -9.4416 F   0  0  0  0  0  0  0  0  0  0  0  0
   -2.4990   -3.2442  -12.2291 C   0  0  1  0  0  0  0  0  0  0  0  0
   -3.4263   -2.9021  -13.2686 C   0  0  0  0  0  0  0  0  0  0  0  0
   -4.1772   -2.5913  -14.1023 O   0  3  0  0  0  0  0  0  0  0  0  0
   -3.0009   -4.2376  -11.3098 O   0  0  0  0  0  0  0  0  0  0  0  0
   -2.9156   -2.9741  -10.8710 C   0  0  0  0  0  0  0  0  0  0  0  0
   -2.3112   -2.4760   -9.9432 O   0  0  0  0  0  0  0  0  0  0  0  0
    1.9963   -0.4632   -2.5512 C   0  0  0  0  0  0  0  0  0  0  0  0
    2.5865   -1.5193   -2.7433 O   0  0  0  0  0  0  0  0  0  0  0  0
    1.3012   -0.1432   -1.2410 C   0  0  0  0  0  0  0  0  0  0  0  0
    1.3677   -0.9068   -0.2944 O   0  0  0  0  0  0  0  0  0  0  0  0
    0.4556    1.1105   -1.1740 C   0  0  0  0  0  0  0  0  0  0  0  0
    0.2797    1.7346   -0.1450 O   0  0  0  0  0  0  0  0  0  0  0  0
  1  2  1  0  0  0  0
  2  3  2  0  0  0  0
  3  4  1  0  0  0  0
  3 54  1  0  0  0  0
  4  5  1  0  0  0  0
  5  6  1  6  0  0  0
  5 50  1  0  0  0  0
  6  7  1  0  0  0  0
  7  8  2  0  0  0  0
  7 12  1  0  0  0  0
  8  9  1  0  0  0  0
  8 26  1  0  0  0  0
  9 10  1  0  0  0  0
 10 11  2  0  0  0  0
 10 21  1  0  0  0  0
 11 12  1  0  0  0  0
 11 13  1  0  0  0  0
 13 14  1  0  0  0  0
 13 19  1  0  0  0  0
 14 15  1  0  0  0  0
 15 16  2  0  0  0  0
 15 17  1  0  0  0  0
 17 18  1  0  0  0  0
 18 19  1  0  0  0  0
 18 25  1  0  0  0  0
 19 20  2  0  0  0  0
 20 21  1  0  0  0  0
 20 22  1  0  0  0  0
 22 23  1  0  0  0  0
 22 24  1  0  0  0  0
 23 24  1  0  0  0  0
 26 27  2  0  0  0  0
 26 32  1  0  0  0  0
 27 28  1  0  0  0  0
 28 29  1  0  0  0  0
 28 30  2  0  0  0  0
 30 31  1  0  0  0  0
 31 32  2  0  0  0  0
 31 42  1  0  0  0  0
 32 33  1  0  0  0  0
 33 34  2  0  0  0  0
 34 35  1  0  0  0  0
 34 41  1  0  0  0  0
 35 36  2  0  0  0  0
 35 37  1  0  0  0  0
 37 38  2  0  0  0  0
 39 37  1  1  0  0  0
 39 40  1  0  0  0  0
 39 44  1  0  0  0  0
 40 41  1  0  0  0  0
 41 42  2  0  0  0  0
 42 43  1  0  0  0  0
 44 45  1  6  0  0  0
 44 47  1  0  0  0  0
 44 48  1  0  0  0  0
 45 46  3  0  0  0  0
 47 48  1  0  0  0  0
 48 49  2  0  0  0  0
 50 51  2  0  0  0  0
 50 52  1  0  0  0  0
 52 53  2  0  0  0  0
 52 54  1  0  0  0  0
 54 55  2  0  0  0  0
M  CHG  3  21   1  28   1  46   1
M  END
$$$$