
 OpenBabel11212022103D

 54 62  0  0  1  0  0  0  0  0999 V2000
    5.4734    1.1055    6.6791 O   0  0  0  0  0  0  0  0  0  0  0  0
    5.4289    1.6525    5.4207 C   0  0  0  0  0  0  0  0  0  0  0  0
    4.8251    1.0584    4.3845 C   0  0  0  0  0  0  0  0  0  0  0  0
    4.2708   -0.2002    4.4905 O   0  0  0  0  0  0  0  0  0  0  0  0
    2.9403   -0.2559    4.0134 C   0  0  2  0  0  0  0  0  0  0  0  0
    2.4319   -1.6113    4.0432 O   0  0  0  0  0  0  0  0  0  0  0  0
    2.3069   -2.3257    5.2173 C   0  0  0  0  0  0  0  0  0  0  0  0
    1.8565   -3.6033    5.1920 C   0  0  0  0  0  0  0  0  0  0  0  0
    1.8187   -4.3748    6.3633 O   0  0  0  0  0  0  0  0  0  0  0  0
    2.4486   -3.9299    7.5257 C   0  0  0  0  0  0  0  0  0  0  0  0
    2.8139   -2.6433    7.6545 C   0  0  0  0  0  0  0  0  0  0  0  0
    2.6798   -1.6680    6.5253 C   0  0  0  0  0  0  0  0  0  0  0  0
    3.4369   -2.1104    8.9134 C   0  0  3  0  0  0  0  0  0  0  0  0
    2.5054   -1.2254    9.5081 O   0  0  0  0  0  0  0  0  0  0  0  0
    2.8497   -0.6816   10.7089 C   0  0  0  0  0  0  0  0  0  0  0  0
    2.2298    0.2533   11.1867 O   0  0  0  0  0  0  0  0  0  0  0  0
    3.9363   -1.2271   11.3102 O   0  0  0  0  0  0  0  0  0  0  0  0
    4.2861   -2.5952   11.1260 C   0  0  3  0  0  0  0  0  0  0  0  0
    3.6728   -3.1813    9.9056 C   0  0  0  0  0  0  0  0  0  0  0  0
    3.3351   -4.4731    9.6965 C   0  0  0  0  0  0  0  0  0  0  0  0
    2.6806   -4.8475    8.5300 O   0  3  0  0  0  0  0  0  0  0  0  0
    3.6045   -5.5565   10.6689 C   0  0  0  0  0  0  0  0  0  0  0  0
    2.6448   -5.9048   11.6726 O   0  0  0  0  0  0  0  0  0  0  0  0
    2.9006   -6.8065   10.5778 O   0  0  0  0  0  0  0  0  0  0  0  0
    5.6805   -2.6846   10.9097 O   0  0  0  0  0  0  0  0  0  0  0  0
    1.3431   -4.3032    3.9527 C   0  0  0  0  0  0  0  0  0  0  0  0
    0.7015   -3.5583    2.9575 C   0  0  0  0  0  0  0  0  0  0  0  0
    0.2294   -4.1438    1.8515 N   0  3  0  0  0  0  0  0  0  0  0  0
   -0.3470   -3.3172    0.9087 O   0  0  0  0  0  0  0  0  0  0  0  0
    0.2713   -5.4363    1.6343 N   0  0  0  0  0  0  0  0  0  0  0  0
    0.8138   -6.2324    2.5604 C   0  0  0  0  0  0  0  0  0  0  0  0
    1.3855   -5.7089    3.7433 C   0  0  0  0  0  0  0  0  0  0  0  0
    1.9451   -6.6326    4.6493 C   0  0  0  0  0  0  0  0  0  0  0  0
    1.8465   -8.0115    4.4580 C   0  0  0  0  0  0  0  0  0  0  0  0
    2.3004   -8.9085    5.5197 C   0  0  0  0  0  0  0  0  0  0  0  0
    2.6485   -8.4536    6.6010 O   0  0  0  0  0  0  0  0  0  0  0  0
    2.2279  -10.3842    5.2052 C   0  0  0  0  0  0  0  0  0  0  0  0
    2.1241  -11.1950    6.1109 O   0  0  0  0  0  0  0  0  0  0  0  0
    2.2527  -10.6915    3.7212 C   0  0  1  0  0  0  0  0  0  0  0  0
    1.3265   -9.8567    2.9844 O   0  0  0  0  0  0  0  0  0  0  0  0
    1.3175   -8.5244    3.2925 C   0  0  0  0  0  0  0  0  0  0  0  0
    0.8089   -7.6199    2.3576 C   0  0  0  0  0  0  0  0  0  0  0  0
    0.2963   -8.0964    1.2114 F   0  0  0  0  0  0  0  0  0  0  0  0
    3.6632  -10.6692    3.1684 C   0  0  1  0  0  0  0  0  0  0  0  0
    4.6043  -11.5497    3.7908 O   0  0  0  0  0  0  0  0  0  0  0  0
    3.7696  -10.5618    1.7395 O   0  0  0  0  0  0  0  0  0  0  0  0
    4.2429   -9.5314    2.4481 C   0  0  0  0  0  0  0  0  0  0  0  0
    3.9872   -8.3413    2.4523 O   0  0  0  0  0  0  0  0  0  0  0  0
    2.8227    0.1186    2.5444 C   0  0  0  0  0  0  0  0  0  0  0  0
    1.9916   -0.3664    1.7822 O   0  0  0  0  0  0  0  0  0  0  0  0
    3.8291    1.1500    2.0821 C   0  0  0  0  0  0  0  0  0  0  0  0
    3.8578    1.4703    0.9052 O   0  0  0  0  0  0  0  0  0  0  0  0
    4.7948    1.7647    3.0768 C   0  0  0  0  0  0  0  0  0  0  0  0
    5.4492    2.7589    2.8228 O   0  0  0  0  0  0  0  0  0  0  0  0
  1  2  1  0  0  0  0
  2  3  2  0  0  0  0
  3  4  1  0  0  0  0
  3 53  1  0  0  0  0
  4  5  1  0  0  0  0
  5  6  1  6  0  0  0
  5 49  1  0  0  0  0
  6  7  1  0  0  0  0
  7  8  2  0  0  0  0
  7 12  1  0  0  0  0
  8  9  1  0  0  0  0
  8 26  1  0  0  0  0
  9 10  1  0  0  0  0
 10 11  2  0  0  0  0
 10 21  1  0  0  0  0
 11 12  1  0  0  0  0
 11 13  1  0  0  0  0
 13 14  1  0  0  0  0
 13 19  1  0  0  0  0
 14 15  1  0  0  0  0
 15 16  2  0  0  0  0
 15 17  1  0  0  0  0
 17 18  1  0  0  0  0
 18 19  1  0  0  0  0
 18 25  1  0  0  0  0
 19 20  2  0  0  0  0
 20 21  1  0  0  0  0
 20 22  1  0  0  0  0
 22 23  1  0  0  0  0
 22 24  1  0  0  0  0
 23 24  1  0  0  0  0
 26 27  2  0  0  0  0
 26 32  1  0  0  0  0
 27 28  1  0  0  0  0
 28 29  1  0  0  0  0
 28 30  2  0  0  0  0
 30 31  1  0  0  0  0
 31 32  2  0  0  0  0
 31 42  1  0  0  0  0
 32 33  1  0  0  0  0
 33 34  2  0  0  0  0
 34 35  1  0  0  0  0
 34 41  1  0  0  0  0
 35 36  2  0  0  0  0
 35 37  1  0  0  0  0
 37 38  2  0  0  0  0
 39 37  1  1  0  0  0
 39 40  1  0  0  0  0
 39 44  1  0  0  0  0
 40 41  1  0  0  0  0
 41 42  2  0  0  0  0
 42 43  1  0  0  0  0
 44 45  1  1  0  0  0
 44 46  1  0  0  0  0
 44 47  1  0  0  0  0
 46 47  1  0  0  0  0
 47 48  2  0  0  0  0
 49 50  2  0  0  0  0
 49 51  1  0  0  0  0
 51 52  2  0  0  0  0
 51 53  1  0  0  0  0
 53 54  2  0  0  0  0
M  CHG  2  21   1  28   1
M  END
$$$$