
 OpenBabel11252016253D

 53 62  0  0  1  0  0  0  0  0999 V2000
    3.3765  -11.5463   -6.9024 O   0  0  0  0  0  0  0  0  0  0  0  0
    2.0694  -11.1883   -7.1293 C   0  0  0  0  0  0  0  0  0  0  0  0
    1.6323   -9.9238   -7.0802 C   0  0  0  0  0  0  0  0  0  0  0  0
    2.4908   -8.8861   -6.7516 O   0  0  0  0  0  0  0  0  0  0  0  0
    2.2006   -7.7123   -7.5107 C   0  0  1  0  0  0  0  0  0  0  0  0
    0.8490   -7.1806   -7.0654 C   0  0  0  0  0  0  0  0  0  0  0  0
   -0.1973   -8.1851   -7.4521 C   0  0  0  0  0  0  0  0  0  0  0  0
   -1.3905   -7.8323   -7.8000 N   0  0  0  0  0  0  0  0  0  0  0  0
    0.1962   -9.6614   -7.4073 C   0  0  0  0  0  0  0  0  0  0  0  0
   -0.6043  -10.5435   -7.6656 O   0  0  0  0  0  0  0  0  0  0  0  0
    3.1905   -6.6827   -7.2649 O   0  0  0  0  0  0  0  0  0  0  0  0
    4.5275   -7.0167   -7.4683 C   0  0  0  0  0  0  0  0  0  0  0  0
    5.5218   -6.3725   -6.8075 C   0  0  0  0  0  0  0  0  0  0  0  0
    6.8640   -6.7630   -6.9638 O   0  0  0  0  0  0  0  0  0  0  0  0
    7.1846   -7.9476   -7.6363 C   0  0  0  0  0  0  0  0  0  0  0  0
    6.2685   -8.5726   -8.3953 C   0  0  0  0  0  0  0  0  0  0  0  0
    4.8571   -8.0852   -8.4919 C   0  0  0  0  0  0  0  0  0  0  0  0
    6.5724   -9.8433   -9.1380 C   0  0  3  0  0  0  0  0  0  0  0  0
    6.3681   -9.6158  -10.5200 O   0  0  0  0  0  0  0  0  0  0  0  0
    6.5021  -10.7283  -11.2997 C   0  0  0  0  0  0  0  0  0  0  0  0
    5.9972  -10.8096  -12.4034 O   0  0  0  0  0  0  0  0  0  0  0  0
    7.1944  -11.7409  -10.7146 O   0  0  0  0  0  0  0  0  0  0  0  0
    8.2986  -11.3971   -9.8878 C   0  0  3  0  0  0  0  0  0  0  0  0
    7.9904  -10.2408   -8.9961 C   0  0  0  0  0  0  0  0  0  0  0  0
    8.8594   -9.5899   -8.1905 C   0  0  0  0  0  0  0  0  0  0  0  0
    8.4617   -8.4540   -7.4964 O   0  3  0  0  0  0  0  0  0  0  0  0
   10.2732   -9.9971   -8.0163 C   0  0  0  0  0  0  0  0  0  0  0  0
   11.3048   -9.4475   -8.8440 O   0  0  0  0  0  0  0  0  0  0  0  0
   11.2272   -9.0803   -7.4528 O   0  0  0  0  0  0  0  0  0  0  0  0
    8.5668  -12.4795   -9.0197 O   0  0  0  0  0  0  0  0  0  0  0  0
    5.3052   -5.1806   -5.9032 C   0  0  0  0  0  0  0  0  0  0  0  0
    4.2574   -4.3000   -6.1924 C   0  0  0  0  0  0  0  0  0  0  0  0
    4.0197   -3.2173   -5.4456 N   0  3  0  0  0  0  0  0  0  0  0  0
    2.9726   -2.4266   -5.7521 F   0  0  0  0  0  0  0  0  0  0  0  0
    4.7820   -2.8751   -4.4305 N   0  0  0  0  0  0  0  0  0  0  0  0
    5.8380   -3.6230   -4.1158 C   0  0  0  0  0  0  0  0  0  0  0  0
    6.1439   -4.8149   -4.8118 C   0  0  0  0  0  0  0  0  0  0  0  0
    7.2824   -5.5349   -4.3759 C   0  0  0  0  0  0  0  0  0  0  0  0
    8.1340   -5.0469   -3.3742 C   0  0  0  0  0  0  0  0  0  0  0  0
    7.8241   -3.8830   -2.7032 C   0  0  0  0  0  0  0  0  0  0  0  0
    6.6733   -3.1941   -3.0781 C   0  0  0  0  0  0  0  0  0  0  0  0
    6.3673   -2.0549   -2.4383 F   0  0  0  0  0  0  0  0  0  0  0  0
    8.6195   -3.3565   -1.7212 O   0  0  0  0  0  0  0  0  0  0  0  0
    9.5026   -4.3141   -1.0800 C   0  0  1  0  0  0  0  0  0  0  0  0
   10.2681   -5.1951   -1.9791 C   0  0  0  0  0  0  0  0  0  0  0  0
   11.4328   -5.5181   -1.8394 O   0  0  0  0  0  0  0  0  0  0  0  0
    9.4014   -5.7376   -3.1018 C   0  0  0  0  0  0  0  0  0  0  0  0
    9.7249   -6.6893   -3.8005 O   0  0  0  0  0  0  0  0  0  0  0  0
   10.1532   -3.8677    0.0810 O   0  0  0  0  0  0  0  0  0  0  0  0
    9.1269   -4.8893    0.2555 C   0  0  1  0  0  0  0  0  0  0  0  0
    7.7405   -4.4661    0.5025 O   0  0  0  0  0  0  0  0  0  0  0  0
    8.5255   -4.6467    1.5453 C   0  0  0  0  0  0  0  0  0  0  0  0
    8.3821   -5.3515    2.5224 O   0  0  0  0  0  0  0  0  0  0  0  0
  1  2  1  0  0  0  0
  2  3  2  0  0  0  0
  3  4  1  0  0  0  0
  3  9  1  0  0  0  0
  4  5  1  0  0  0  0
  5  6  1  0  0  0  0
  5 11  1  1  0  0  0
  6  7  1  0  0  0  0
  7  8  2  0  0  0  0
  7  9  1  0  0  0  0
  9 10  2  0  0  0  0
 11 12  1  0  0  0  0
 12 13  2  0  0  0  0
 12 17  1  0  0  0  0
 13 14  1  0  0  0  0
 13 31  1  0  0  0  0
 14 15  1  0  0  0  0
 15 16  2  0  0  0  0
 15 26  1  0  0  0  0
 16 17  1  0  0  0  0
 16 18  1  0  0  0  0
 18 19  1  0  0  0  0
 18 24  1  0  0  0  0
 19 20  1  0  0  0  0
 20 21  2  0  0  0  0
 20 22  1  0  0  0  0
 22 23  1  0  0  0  0
 23 24  1  0  0  0  0
 23 30  1  0  0  0  0
 24 25  2  0  0  0  0
 25 26  1  0  0  0  0
 25 27  1  0  0  0  0
 27 28  1  0  0  0  0
 27 29  1  0  0  0  0
 28 29  1  0  0  0  0
 31 32  2  0  0  0  0
 31 37  1  0  0  0  0
 32 33  1  0  0  0  0
 33 34  1  0  0  0  0
 33 35  2  0  0  0  0
 35 36  1  0  0  0  0
 36 37  2  0  0  0  0
 36 41  1  0  0  0  0
 37 38  1  0  0  0  0
 38 39  2  0  0  0  0
 39 40  1  0  0  0  0
 39 47  1  0  0  0  0
 40 41  2  0  0  0  0
 40 43  1  0  0  0  0
 41 42  1  0  0  0  0
 44 43  1  6  0  0  0
 44 45  1  0  0  0  0
 44 49  1  0  0  0  0
 44 50  1  0  0  0  0
 45 46  2  0  0  0  0
 45 47  1  0  0  0  0
 47 48  2  0  0  0  0
 50 49  1  1  0  0  0
 50 51  1  0  0  0  0
 50 52  1  0  0  0  0
 51 52  1  0  0  0  0
 52 53  2  0  0  0  0
M  CHG  2  26   1  33   1
M  END
$$$$