
 OpenBabel11152013413D

 53 61  0  0  1  0  0  0  0  0999 V2000
   -2.4497    4.5174   -2.2806 O   0  0  0  0  0  0  0  0  0  0  0  0
   -2.1781    3.4944   -1.4086 C   0  0  0  0  0  0  0  0  0  0  0  0
   -1.0751    2.7412   -1.4996 C   0  0  0  0  0  0  0  0  0  0  0  0
   -0.1784    2.9496   -2.5285 O   0  0  0  0  0  0  0  0  0  0  0  0
    1.1794    2.6698   -2.2009 C   0  0  2  0  0  0  0  0  0  0  0  0
    2.0379    2.9431   -3.3089 O   0  0  0  0  0  0  0  0  0  0  0  0
    2.0760    4.2640   -3.7486 C   0  0  0  0  0  0  0  0  0  0  0  0
    2.3708    4.5631   -5.0314 C   0  0  0  0  0  0  0  0  0  0  0  0
    2.4601    5.8686   -5.5027 O   0  0  0  0  0  0  0  0  0  0  0  0
    2.3082    6.9365   -4.6224 C   0  0  0  0  0  0  0  0  0  0  0  0
    2.0373    6.7457   -3.3204 C   0  0  0  0  0  0  0  0  0  0  0  0
    1.8626    5.3740   -2.7462 C   0  0  0  0  0  0  0  0  0  0  0  0
    1.8719    7.8971   -2.3733 C   0  0  3  0  0  0  0  0  0  0  0  0
    2.8292    7.7325   -1.3292 O   0  0  0  0  0  0  0  0  0  0  0  0
    3.1273    8.7465   -0.4810 C   0  0  0  0  0  0  0  0  0  0  0  0
    3.7790    8.5498    0.5359 O   0  0  0  0  0  0  0  0  0  0  0  0
    2.7129    9.9888   -0.8222 O   0  0  0  0  0  0  0  0  0  0  0  0
    1.9840   10.2852   -2.0059 C   0  0  3  0  0  0  0  0  0  0  0  0
    2.0950    9.2079   -3.0124 C   0  0  0  0  0  0  0  0  0  0  0  0
    2.3581    9.3421   -4.3290 C   0  0  0  0  0  0  0  0  0  0  0  0
    2.4524    8.2135   -5.1522 O   0  0  0  0  0  0  0  0  0  0  0  0
    2.5644   10.6372   -5.0118 C   0  0  0  0  0  0  0  0  0  0  0  0
    1.7220   11.0619   -6.0955 O   0  0  0  0  0  0  0  0  0  0  0  0
    1.6734   11.7528   -4.8343 O   0  0  0  0  0  0  0  0  0  0  0  0
    0.6162   10.4312   -1.6686 O   0  0  0  0  0  0  0  0  0  0  0  0
    2.6724    3.5401   -6.0523 C   0  0  0  0  0  0  0  0  0  0  0  0
    3.9814    3.2251   -6.1430 N   0  0  0  0  0  0  0  0  0  0  0  0
    4.3607    2.3179   -6.9962 N   0  0  0  0  0  0  0  0  0  0  0  0
    3.5079    1.6782   -7.7615 N   0  0  0  0  0  0  0  0  0  0  0  0
    2.1957    1.9508   -7.7088 C   0  0  0  0  0  0  0  0  0  0  0  0
    1.7026    2.9351   -6.8527 C   0  0  0  0  0  0  0  0  0  0  0  0
    0.3150    3.2389   -6.8494 C   0  0  0  0  0  0  0  0  0  0  0  0
   -0.5707    2.5114   -7.6491 C   0  0  0  0  0  0  0  0  0  0  0  0
   -2.0086    2.8088   -7.6354 C   0  0  0  0  0  0  0  0  0  0  0  0
   -2.4814    3.7163   -6.9717 O   0  0  0  0  0  0  0  0  0  0  0  0
   -2.8873    1.9124   -8.4764 C   0  0  0  0  0  0  0  0  0  0  0  0
   -4.0048    2.2643   -8.8240 O   0  0  0  0  0  0  0  0  0  0  0  0
   -2.2731    0.5712   -8.7842 C   0  0  1  0  0  0  0  0  0  0  0  0
   -0.8990    0.6613   -9.2027 O   0  0  0  0  0  0  0  0  0  0  0  0
   -0.1002    1.4823   -8.4501 C   0  0  0  0  0  0  0  0  0  0  0  0
    1.2772    1.2434   -8.5012 C   0  0  0  0  0  0  0  0  0  0  0  0
    1.7386    0.2544   -9.3445 O   0  0  0  0  0  0  0  0  0  0  0  0
   -2.4223   -0.3905   -7.6390 C   0  0  1  0  0  0  0  0  0  0  0  0
   -1.8287   -0.0267   -6.3774 O   0  0  0  0  0  0  0  0  0  0  0  0
   -3.6856   -1.0539   -7.5218 O   0  0  0  0  0  0  0  0  0  0  0  0
   -2.6405   -1.8039   -7.9076 C   0  0  0  0  0  0  0  0  0  0  0  0
   -2.4811   -2.4707   -8.8983 O   0  0  0  0  0  0  0  0  0  0  0  0
    1.2390    1.2014   -1.7726 C   0  0  0  0  0  0  0  0  0  0  0  0
    1.8774    0.3409   -2.3748 O   0  0  0  0  0  0  0  0  0  0  0  0
    0.4765    0.9306   -0.4821 C   0  0  3  0  0  0  0  0  0  0  0  0
   -0.8650    1.6611   -0.4763 C   0  0  0  0  0  0  0  0  0  0  0  0
   -1.7255    1.4326    0.3747 O   0  0  0  0  0  0  0  0  0  0  0  0
    0.4162   -0.8726    0.1197 P   0  0  0  0  0  0  0  0  0  0  0  0
  1  2  1  0  0  0  0
  2  3  2  0  0  0  0
  3  4  1  0  0  0  0
  3 51  1  0  0  0  0
  4  5  1  0  0  0  0
  5  6  1  6  0  0  0
  5 48  1  0  0  0  0
  6  7  1  0  0  0  0
  7  8  2  0  0  0  0
  7 12  1  0  0  0  0
  8  9  1  0  0  0  0
  8 26  1  0  0  0  0
  9 10  1  0  0  0  0
 10 11  2  0  0  0  0
 10 21  1  0  0  0  0
 11 12  1  0  0  0  0
 11 13  1  0  0  0  0
 13 14  1  0  0  0  0
 13 19  1  0  0  0  0
 14 15  1  0  0  0  0
 15 16  2  0  0  0  0
 15 17  1  0  0  0  0
 17 18  1  0  0  0  0
 18 19  1  0  0  0  0
 18 25  1  0  0  0  0
 19 20  2  0  0  0  0
 20 21  1  0  0  0  0
 20 22  1  0  0  0  0
 22 23  1  0  0  0  0
 22 24  1  0  0  0  0
 23 24  1  0  0  0  0
 26 27  2  0  0  0  0
 26 31  1  0  0  0  0
 27 28  1  0  0  0  0
 28 29  2  0  0  0  0
 29 30  1  0  0  0  0
 30 31  2  0  0  0  0
 30 41  1  0  0  0  0
 31 32  1  0  0  0  0
 32 33  2  0  0  0  0
 33 34  1  0  0  0  0
 33 40  1  0  0  0  0
 34 35  2  0  0  0  0
 34 36  1  0  0  0  0
 36 37  2  0  0  0  0
 38 36  1  1  0  0  0
 38 39  1  0  0  0  0
 38 43  1  0  0  0  0
 39 40  1  0  0  0  0
 40 41  2  0  0  0  0
 41 42  1  0  0  0  0
 43 44  1  1  0  0  0
 43 45  1  0  0  0  0
 43 46  1  0  0  0  0
 45 46  1  0  0  0  0
 46 47  2  0  0  0  0
 48 49  2  0  0  0  0
 48 50  1  0  0  0  0
 50 51  1  0  0  0  0
 50 53  1  0  0  0  0
 51 52  2  0  0  0  0
M  END
$$$$