
 OpenBabel11222001343D

 54 63  0  0  1  0  0  0  0  0999 V2000
    5.0154   -1.3591    4.1243 O   0  0  0  0  0  0  0  0  0  0  0  0
    5.2244   -1.4402    2.7724 C   0  0  0  0  0  0  0  0  0  0  0  0
    4.5090   -2.2505    1.9868 C   0  0  0  0  0  0  0  0  0  0  0  0
    3.5180   -3.0547    2.5202 O   0  0  0  0  0  0  0  0  0  0  0  0
    2.4273   -3.3294    1.6543 C   0  0  2  0  0  0  0  0  0  0  0  0
    1.4714   -4.2360    2.2817 O   0  0  0  0  0  0  0  0  0  0  0  0
    1.9135   -5.5339    2.5418 C   0  0  0  0  0  0  0  0  0  0  0  0
    1.0721   -6.5883    2.4770 C   0  0  0  0  0  0  0  0  0  0  0  0
    1.4862   -7.9064    2.7073 O   0  0  0  0  0  0  0  0  0  0  0  0
    2.8151   -8.1609    3.0825 C   0  0  0  0  0  0  0  0  0  0  0  0
    3.6887   -7.1547    3.2649 C   0  0  0  0  0  0  0  0  0  0  0  0
    3.3441   -5.7319    2.9769 C   0  0  0  0  0  0  0  0  0  0  0  0
    5.0957   -7.3830    3.7479 C   0  0  3  0  0  0  0  0  0  0  0  0
    5.1813   -6.8564    5.0600 O   0  0  0  0  0  0  0  0  0  0  0  0
    6.3606   -7.0266    5.7185 C   0  0  0  0  0  0  0  0  0  0  0  0
    6.6022   -6.4180    6.7563 O   0  0  0  0  0  0  0  0  0  0  0  0
    7.2363   -7.8835    5.1495 O   0  0  0  0  0  0  0  0  0  0  0  0
    6.8116   -8.9750    4.3319 C   0  0  3  0  0  0  0  0  0  0  0  0
    5.4087   -8.8178    3.8671 C   0  0  0  0  0  0  0  0  0  0  0  0
    4.5104   -9.7933    3.6083 C   0  0  0  0  0  0  0  0  0  0  0  0
    3.2033   -9.4712    3.2661 O   0  3  0  0  0  0  0  0  0  0  0  0
    4.8223  -11.2368    3.6855 C   0  0  0  0  0  0  0  0  0  0  0  0
    4.6396  -11.9709    4.8996 O   0  0  0  0  0  0  0  0  0  0  0  0
    3.7570  -12.1986    3.7832 O   0  0  0  0  0  0  0  0  0  0  0  0
    7.5772   -8.9874    3.1441 O   0  0  0  0  0  0  0  0  0  0  0  0
   -0.3839   -6.4156    2.2526 C   0  0  0  0  0  0  0  0  0  0  0  0
   -1.1840   -6.2412    3.3846 C   0  0  0  0  0  0  0  0  0  0  0  0
   -2.4999   -6.0319    3.2668 N   0  3  0  0  0  0  0  0  0  0  0  0
   -3.2468   -5.8883    4.3792 F   0  0  0  0  0  0  0  0  0  0  0  0
   -3.0995   -5.9500    2.0938 N   0  0  0  0  0  0  0  0  0  0  0  0
   -2.3873   -6.0744    0.9693 C   0  0  0  0  0  0  0  0  0  0  0  0
   -1.0033   -6.3353    0.9833 C   0  0  0  0  0  0  0  0  0  0  0  0
   -0.3330   -6.4777   -0.2621 C   0  0  0  0  0  0  0  0  0  0  0  0
   -1.0088   -6.3059   -1.4820 C   0  0  0  0  0  0  0  0  0  0  0  0
   -0.3255   -6.4301   -2.7737 C   0  0  0  0  0  0  0  0  0  0  0  0
    0.7170   -7.1547   -3.0027 N   0  0  0  0  0  0  0  0  0  0  0  0
   -0.9717   -5.6768   -3.8995 C   0  0  0  0  0  0  0  0  0  0  0  0
   -0.2786   -5.0193   -4.7831 O   0  3  0  0  0  0  0  0  0  0  0  0
   -0.8955   -4.2744   -5.7725 N   0  0  0  0  0  0  0  0  0  0  0  0
   -2.1158   -3.8708   -5.6194 C   0  0  0  0  0  0  0  0  0  0  0  0
   -3.0228   -4.6687   -4.7490 C   0  0  2  0  0  0  0  0  0  0  0  0
   -2.4736   -5.7653   -3.8989 C   0  0  2  0  0  0  0  0  0  0  0  0
   -3.0983   -5.7165   -2.6098 O   0  0  0  0  0  0  0  0  0  0  0  0
   -2.3583   -5.9874   -1.4915 C   0  0  0  0  0  0  0  0  0  0  0  0
   -3.0260   -5.9118   -0.2632 C   0  0  0  0  0  0  0  0  0  0  0  0
   -4.3421   -5.6465   -0.2694 F   0  0  0  0  0  0  0  0  0  0  0  0
   -4.3630   -4.8255   -5.2263 O   0  0  0  0  0  0  0  0  0  0  0  0
   -2.6142   -3.3840   -4.4343 O   0  0  0  0  0  0  0  0  0  0  0  0
    2.8105   -3.8825    0.2817 C   0  0  0  0  0  0  0  0  0  0  0  0
    2.1194   -4.6429   -0.3870 O   0  0  0  0  0  0  0  0  0  0  0  0
    4.1882   -3.4764   -0.1568 C   0  0  0  0  0  0  0  0  0  0  0  0
    4.7796   -4.1647   -0.9708 O   0  0  0  0  0  0  0  0  0  0  0  0
    4.8515   -2.3150    0.5410 C   0  0  0  0  0  0  0  0  0  0  0  0
    5.5523   -1.5248   -0.0575 O   0  0  0  0  0  0  0  0  0  0  0  0
  1  2  1  0  0  0  0
  2  3  2  0  0  0  0
  3  4  1  0  0  0  0
  3 53  1  0  0  0  0
  4  5  1  0  0  0  0
  5  6  1  1  0  0  0
  5 49  1  0  0  0  0
  6  7  1  0  0  0  0
  7  8  2  0  0  0  0
  7 12  1  0  0  0  0
  8  9  1  0  0  0  0
  8 26  1  0  0  0  0
  9 10  1  0  0  0  0
 10 11  2  0  0  0  0
 10 21  1  0  0  0  0
 11 12  1  0  0  0  0
 11 13  1  0  0  0  0
 13 14  1  0  0  0  0
 13 19  1  0  0  0  0
 14 15  1  0  0  0  0
 15 16  2  0  0  0  0
 15 17  1  0  0  0  0
 17 18  1  0  0  0  0
 18 19  1  0  0  0  0
 18 25  1  0  0  0  0
 19 20  2  0  0  0  0
 20 21  1  0  0  0  0
 20 22  1  0  0  0  0
 22 23  1  0  0  0  0
 22 24  1  0  0  0  0
 23 24  1  0  0  0  0
 26 27  2  0  0  0  0
 26 32  1  0  0  0  0
 27 28  1  0  0  0  0
 28 30  2  0  0  0  0
 28 29  1  0  0  0  0
 30 31  1  0  0  0  0
 31 32  2  0  0  0  0
 31 45  1  0  0  0  0
 32 33  1  0  0  0  0
 33 34  2  0  0  0  0
 34 35  1  0  0  0  0
 34 44  1  0  0  0  0
 35 37  1  0  0  0  0
 35 36  2  0  0  0  0
 37 38  2  0  0  0  0
 38 39  1  0  0  0  0
 39 40  2  0  0  0  0
 40 41  1  0  0  0  0
 40 48  1  0  0  0  0
 41 42  1  0  0  0  0
 41 48  1  0  0  0  0
 41 47  1  6  0  0  0
 42 37  1  1  0  0  0
 42 43  1  0  0  0  0
 43 44  1  0  0  0  0
 44 45  2  0  0  0  0
 45 46  1  0  0  0  0
 49 50  2  0  0  0  0
 49 51  1  0  0  0  0
 51 52  2  0  0  0  0
 51 53  1  0  0  0  0
 53 54  2  0  0  0  0
M  CHG  3  21   1  28   1  38   1
M  END
$$$$