
 OpenBabel11212021073D

 54 62  0  0  1  0  0  0  0  0999 V2000
    5.8583   -2.6877    0.5379 O   0  0  0  0  0  0  0  0  0  0  0  0
    5.2090   -1.4882    0.6903 C   0  0  0  0  0  0  0  0  0  0  0  0
    4.1061   -1.1828   -0.0012 C   0  0  0  0  0  0  0  0  0  0  0  0
    3.6077   -2.0567   -0.9531 O   0  0  0  0  0  0  0  0  0  0  0  0
    2.2121   -2.2487   -0.8326 C   0  0  2  0  0  0  0  0  0  0  0  0
    1.7542   -3.1609   -1.8612 O   0  0  0  0  0  0  0  0  0  0  0  0
    1.7261   -4.5300   -1.6672 C   0  0  0  0  0  0  0  0  0  0  0  0
    1.1789   -5.3491   -2.6030 C   0  0  0  0  0  0  0  0  0  0  0  0
    1.1140   -6.7281   -2.4349 O   0  0  0  0  0  0  0  0  0  0  0  0
    1.4568   -7.2714   -1.1573 C   0  0  3  0  0  0  0  0  0  0  0  0
    2.6306   -6.5704   -0.5014 C   0  0  3  0  0  0  0  0  0  0  0  0
    2.3483   -5.0791   -0.4084 C   0  0  0  0  0  0  0  0  0  0  0  0
    2.8625   -7.1770    0.8618 C   0  0  0  0  0  0  0  0  0  0  0  0
    3.5631   -6.5394    1.7372 N   0  0  0  0  0  0  0  0  0  0  0  0
    3.7194   -7.1494    2.9692 C   0  0  0  0  0  0  0  0  0  0  0  0
    3.6634   -6.4778    3.9869 O   0  0  0  0  0  0  0  0  0  0  0  0
    3.8658   -8.5174    3.0308 N   0  0  0  0  0  0  0  0  0  0  0  0
    3.1687   -9.1638    2.1736 C   0  0  0  0  0  0  0  0  0  0  0  0
    2.2568   -8.5196    1.1759 C   0  0  3  0  0  0  0  0  0  0  0  0
    2.0066   -9.3659   -0.0816 C   0  0  3  0  0  0  0  0  0  0  0  0
    1.7819   -8.6344   -1.2864 O   0  3  0  0  0  0  0  0  0  0  0  0
    0.8634  -10.3327    0.1352 C   0  0  0  0  0  0  0  0  0  0  0  0
   -0.3989   -9.7023    0.3705 O   0  0  0  0  0  0  0  0  0  0  0  0
   -0.1323  -10.3456   -0.8935 O   0  0  0  0  0  0  0  0  0  0  0  0
    3.2204  -10.4946    2.1570 O   0  0  0  0  0  0  0  0  0  0  0  0
    0.5625   -4.8677   -3.9041 C   0  0  0  0  0  0  0  0  0  0  0  0
   -0.0818   -3.6296   -3.9275 C   0  0  0  0  0  0  0  0  0  0  0  0
   -0.6738   -3.1667   -5.0291 N   0  3  0  0  0  0  0  0  0  0  0  0
   -1.2899   -1.9692   -4.9841 F   0  0  0  0  0  0  0  0  0  0  0  0
   -0.7207   -3.8525   -6.1485 N   0  0  0  0  0  0  0  0  0  0  0  0
   -0.1778   -5.0710   -6.2226 C   0  0  0  0  0  0  0  0  0  0  0  0
    0.5004   -5.6286   -5.1135 C   0  0  0  0  0  0  0  0  0  0  0  0
    1.0440   -6.9238   -5.2867 C   0  0  0  0  0  0  0  0  0  0  0  0
    0.8274   -7.6830   -6.4471 C   0  0  0  0  0  0  0  0  0  0  0  0
    1.2356   -9.0878   -6.4566 C   0  0  0  0  0  0  0  0  0  0  0  0
    1.8421   -9.5657   -5.5077 O   0  0  0  0  0  0  0  0  0  0  0  0
    0.7085   -9.9236   -7.5941 C   0  0  0  0  0  0  0  0  0  0  0  0
    0.4625  -11.1049   -7.4022 O   0  0  0  0  0  0  0  0  0  0  0  0
    0.4397   -9.1561   -8.8692 C   0  0  1  0  0  0  0  0  0  0  0  0
   -0.1178   -7.8431   -8.6712 O   0  0  0  0  0  0  0  0  0  0  0  0
    0.1473   -7.1529   -7.5226 C   0  0  0  0  0  0  0  0  0  0  0  0
   -0.3154   -5.8316   -7.4070 C   0  0  0  0  0  0  0  0  0  0  0  0
   -1.2135   -5.0424   -8.9053 Br  0  0  0  0  0  0  0  0  0  0  0  0
    1.6394   -9.1425   -9.7788 C   0  0  1  0  0  0  0  0  0  0  0  0
    2.1239  -10.4202  -10.2236 O   0  0  0  0  0  0  0  0  0  0  0  0
    1.6852   -8.0999  -10.7606 O   0  0  0  0  0  0  0  0  0  0  0  0
    2.5958   -8.0563   -9.7794 C   0  0  0  0  0  0  0  0  0  0  0  0
    2.8242   -7.2135   -8.9267 O   0  0  0  0  0  0  0  0  0  0  0  0
    1.4431   -0.9601   -1.0757 C   0  0  0  0  0  0  0  0  0  0  0  0
    0.3627   -0.9102   -1.6558 O   0  0  0  0  0  0  0  0  0  0  0  0
    2.1215    0.2714   -0.5121 C   0  0  0  0  0  0  0  0  0  0  0  0
    1.6187    1.3681   -0.6914 O   0  0  0  0  0  0  0  0  0  0  0  0
    3.4236    0.1178    0.2539 C   0  0  0  0  0  0  0  0  0  0  0  0
    3.8197    0.9629    1.0351 O   0  0  0  0  0  0  0  0  0  0  0  0
  1  2  1  0  0  0  0
  2  3  2  0  0  0  0
  3  4  1  0  0  0  0
  3 53  1  0  0  0  0
  4  5  1  0  0  0  0
  5  6  1  6  0  0  0
  5 49  1  0  0  0  0
  6  7  1  0  0  0  0
  7  8  2  0  0  0  0
  7 12  1  0  0  0  0
  8  9  1  0  0  0  0
  8 26  1  0  0  0  0
  9 10  1  0  0  0  0
 10 11  1  0  0  0  0
 10 21  1  0  0  0  0
 11 12  1  0  0  0  0
 11 13  1  0  0  0  0
 13 14  2  0  0  0  0
 13 19  1  0  0  0  0
 14 15  1  0  0  0  0
 15 16  2  0  0  0  0
 15 17  1  0  0  0  0
 17 18  2  0  0  0  0
 18 19  1  0  0  0  0
 18 25  1  0  0  0  0
 19 20  1  0  0  0  0
 20 21  1  0  0  0  0
 20 22  1  0  0  0  0
 22 23  1  0  0  0  0
 22 24  1  0  0  0  0
 23 24  1  0  0  0  0
 26 27  2  0  0  0  0
 26 32  1  0  0  0  0
 27 28  1  0  0  0  0
 28 29  1  0  0  0  0
 28 30  2  0  0  0  0
 30 31  1  0  0  0  0
 31 32  2  0  0  0  0
 31 42  1  0  0  0  0
 32 33  1  0  0  0  0
 33 34  2  0  0  0  0
 34 35  1  0  0  0  0
 34 41  1  0  0  0  0
 35 36  2  0  0  0  0
 35 37  1  0  0  0  0
 37 38  2  0  0  0  0
 39 37  1  1  0  0  0
 39 40  1  0  0  0  0
 39 44  1  0  0  0  0
 40 41  1  0  0  0  0
 41 42  2  0  0  0  0
 42 43  1  0  0  0  0
 44 45  1  6  0  0  0
 44 46  1  0  0  0  0
 44 47  1  0  0  0  0
 46 47  1  0  0  0  0
 47 48  2  0  0  0  0
 49 50  2  0  0  0  0
 49 51  1  0  0  0  0
 51 52  2  0  0  0  0
 51 53  1  0  0  0  0
 53 54  2  0  0  0  0
M  CHG  2  21   1  28   1
M  END
$$$$