
 OpenBabel11262013553D

 54 62  0  0  1  0  0  0  0  0999 V2000
    4.2642   -4.0957   -2.3302 F   0  0  0  0  0  0  0  0  0  0  0  0
    4.6174   -2.8989   -1.8209 C   0  0  0  0  0  0  0  0  0  0  0  0
    4.1055   -2.4624   -0.6678 C   0  0  0  0  0  0  0  0  0  0  0  0
    3.1591   -3.2199    0.0016 O   0  0  0  0  0  0  0  0  0  0  0  0
    3.0764   -3.0267    1.4153 C   0  0  2  0  0  0  0  0  0  0  0  0
    2.0719   -3.9025    1.9865 O   0  0  0  0  0  0  0  0  0  0  0  0
    2.2877   -5.2780    1.9115 C   0  0  0  0  0  0  0  0  0  0  0  0
    1.3915   -6.1566    2.4167 C   0  0  0  0  0  0  0  0  0  0  0  0
    1.5664   -7.5512    2.3467 O   0  0  0  0  0  0  0  0  0  0  0  0
    2.7444   -8.0794    1.7847 C   0  0  0  0  0  0  0  0  0  0  0  0
    3.6910   -7.2649    1.2889 C   0  0  0  0  0  0  0  0  0  0  0  0
    3.5485   -5.7809    1.2599 C   0  0  0  0  0  0  0  0  0  0  0  0
    4.9834   -7.7723    0.7148 C   0  0  3  0  0  0  0  0  0  0  0  0
    6.0130   -7.3166    1.5734 O   0  0  0  0  0  0  0  0  0  0  0  0
    7.2861   -7.7245    1.3253 C   0  0  0  0  0  0  0  0  0  0  0  0
    8.2374   -7.1661    1.8444 O   0  0  0  0  0  0  0  0  0  0  0  0
    7.4226   -8.7886    0.5009 O   0  0  0  0  0  0  0  0  0  0  0  0
    6.3564   -9.6551    0.1330 C   0  0  3  0  0  0  0  0  0  0  0  0
    5.0546   -9.2459    0.7248 C   0  0  0  0  0  0  0  0  0  0  0  0
    4.0682  -10.0269    1.2189 C   0  0  0  0  0  0  0  0  0  0  0  0
    2.9172   -9.4506    1.7592 O   0  3  0  0  0  0  0  0  0  0  0  0
    4.1028  -11.5114    1.2286 C   0  0  0  0  0  0  0  0  0  0  0  0
    3.4141  -12.2420    2.2563 O   0  0  0  0  0  0  0  0  0  0  0  0
    2.9258  -12.2663    0.9019 O   0  0  0  0  0  0  0  0  0  0  0  0
    6.1652   -9.5871   -1.2639 O   0  0  0  0  0  0  0  0  0  0  0  0
    0.1567   -5.7039    3.1241 C   0  0  0  0  0  0  0  0  0  0  0  0
    0.2310   -5.5085    4.4999 C   0  0  0  0  0  0  0  0  0  0  0  0
   -0.8855   -5.0433    5.1386 C   0  0  0  0  0  0  0  0  0  0  0  0
   -0.8458   -4.8774    6.4638 F   0  0  0  0  0  0  0  0  0  0  0  0
   -2.0260   -4.7621    4.5093 N   0  0  0  0  0  0  0  0  0  0  0  0
   -2.0867   -4.9508    3.1812 C   0  0  0  0  0  0  0  0  0  0  0  0
   -1.0169   -5.4600    2.4523 N   0  3  0  0  0  0  0  0  0  0  0  0
   -1.1724   -5.7043    1.1243 C   0  0  0  0  0  0  0  0  0  0  0  0
   -2.3645   -5.4322    0.4630 C   0  0  0  0  0  0  0  0  0  0  0  0
   -2.4777   -5.7308   -0.9545 C   0  0  0  0  0  0  0  0  0  0  0  0
   -1.5435   -6.2721   -1.5215 O   0  0  0  0  0  0  0  0  0  0  0  0
   -3.7686   -5.3505   -1.6391 C   0  0  0  0  0  0  0  0  0  0  0  0
   -4.0565   -5.8633   -2.7072 O   0  0  0  0  0  0  0  0  0  0  0  0
   -4.5716   -4.2946   -0.9084 C   0  0  1  0  0  0  0  0  0  0  0  0
   -4.5873   -4.4975    0.5248 O   0  0  0  0  0  0  0  0  0  0  0  0
   -3.4236   -4.8720    1.1302 C   0  0  0  0  0  0  0  0  0  0  0  0
   -3.2766   -4.6534    2.4942 C   0  0  0  0  0  0  0  0  0  0  0  0
   -4.3091   -4.1286    3.1720 F   0  0  0  0  0  0  0  0  0  0  0  0
   -4.1396   -2.9006   -1.3094 C   0  0  1  0  0  0  0  0  0  0  0  0
   -4.3016   -2.5721   -2.7019 O   0  0  0  0  0  0  0  0  0  0  0  0
   -4.4996   -1.8645   -0.3821 O   0  0  0  0  0  0  0  0  0  0  0  0
   -3.1965   -2.0917   -0.5497 C   0  0  0  0  0  0  0  0  0  0  0  0
   -2.3055   -2.4489    0.2037 O   0  0  0  0  0  0  0  0  0  0  0  0
    2.7562   -1.5680    1.6576 C   0  0  0  0  0  0  0  0  0  0  0  0
    1.7564   -1.1363    2.2048 O   0  0  0  0  0  0  0  0  0  0  0  0
    3.8448   -0.6825    1.1024 C   0  0  0  0  0  0  0  0  0  0  0  0
    4.2132    0.2926    1.7308 O   0  0  0  0  0  0  0  0  0  0  0  0
    4.5500   -1.1299   -0.1684 C   0  0  0  0  0  0  0  0  0  0  0  0
    5.4251   -0.4700   -0.6975 O   0  0  0  0  0  0  0  0  0  0  0  0
  1  2  1  0  0  0  0
  2  3  2  0  0  0  0
  3  4  1  0  0  0  0
  3 53  1  0  0  0  0
  4  5  1  0  0  0  0
  5  6  1  6  0  0  0
  5 49  1  0  0  0  0
  6  7  1  0  0  0  0
  7  8  2  0  0  0  0
  7 12  1  0  0  0  0
  8  9  1  0  0  0  0
  8 26  1  0  0  0  0
  9 10  1  0  0  0  0
 10 11  2  0  0  0  0
 10 21  1  0  0  0  0
 11 12  1  0  0  0  0
 11 13  1  0  0  0  0
 13 14  1  0  0  0  0
 13 19  1  0  0  0  0
 14 15  1  0  0  0  0
 15 16  2  0  0  0  0
 15 17  1  0  0  0  0
 17 18  1  0  0  0  0
 18 19  1  0  0  0  0
 18 25  1  0  0  0  0
 19 20  2  0  0  0  0
 20 21  1  0  0  0  0
 20 22  1  0  0  0  0
 22 23  1  0  0  0  0
 22 24  1  0  0  0  0
 23 24  1  0  0  0  0
 26 27  2  0  0  0  0
 26 32  1  0  0  0  0
 27 28  1  0  0  0  0
 28 29  1  0  0  0  0
 28 30  2  0  0  0  0
 30 31  1  0  0  0  0
 31 32  2  0  0  0  0
 31 42  1  0  0  0  0
 32 33  1  0  0  0  0
 33 34  2  0  0  0  0
 34 35  1  0  0  0  0
 34 41  1  0  0  0  0
 35 36  2  0  0  0  0
 35 37  1  0  0  0  0
 37 38  2  0  0  0  0
 39 37  1  6  0  0  0
 39 40  1  0  0  0  0
 39 44  1  0  0  0  0
 40 41  1  0  0  0  0
 41 42  2  0  0  0  0
 42 43  1  0  0  0  0
 44 45  1  6  0  0  0
 44 46  1  0  0  0  0
 44 47  1  0  0  0  0
 46 47  1  0  0  0  0
 47 48  2  0  0  0  0
 49 50  2  0  0  0  0
 49 51  1  0  0  0  0
 51 52  2  0  0  0  0
 51 53  1  0  0  0  0
 53 54  2  0  0  0  0
M  CHG  2  21   1  32   1
M  END
$$$$