
 OpenBabel11152013563D

 53 61  0  0  1  0  0  0  0  0999 V2000
   -2.3513    5.4420   -1.4219 O   0  0  0  0  0  0  0  0  0  0  0  0
   -2.1482    4.3938   -0.5601 C   0  0  0  0  0  0  0  0  0  0  0  0
   -1.0896    3.5808   -0.6464 C   0  0  0  0  0  0  0  0  0  0  0  0
   -0.1729    3.7235   -1.6725 O   0  0  0  0  0  0  0  0  0  0  0  0
    1.1816    3.4243   -1.3372 C   0  0  2  0  0  0  0  0  0  0  0  0
    2.0711    3.6839   -2.4545 O   0  0  0  0  0  0  0  0  0  0  0  0
    2.1512    4.9897   -2.9492 C   0  0  0  0  0  0  0  0  0  0  0  0
    2.9257    5.3188   -4.0193 C   0  0  0  0  0  0  0  0  0  0  0  0
    2.9710    6.6269   -4.5232 O   0  0  0  0  0  0  0  0  0  0  0  0
    2.3947    7.6676   -3.8094 C   0  0  0  0  0  0  0  0  0  0  0  0
    1.6447    7.4382   -2.7276 C   0  0  0  0  0  0  0  0  0  0  0  0
    1.3645    6.0662   -2.2365 C   0  0  0  0  0  0  0  0  0  0  0  0
    1.0231    8.5673   -1.9547 C   0  0  3  0  0  0  0  0  0  0  0  0
    1.5129    8.4563   -0.6203 O   0  0  0  0  0  0  0  0  0  0  0  0
    1.4406    9.4858    0.2526 C   0  0  0  0  0  0  0  0  0  0  0  0
    1.7276    9.3248    1.4312 O   0  0  0  0  0  0  0  0  0  0  0  0
    1.0758   10.6983   -0.2336 O   0  0  0  0  0  0  0  0  0  0  0  0
    0.7487   10.9348   -1.5972 C   0  0  3  0  0  0  0  0  0  0  0  0
    1.3590    9.9160   -2.4754 C   0  0  0  0  0  0  0  0  0  0  0  0
    2.1332   10.0899   -3.5710 C   0  0  0  0  0  0  0  0  0  0  0  0
    2.6154    8.9583   -4.2281 N   0  0  0  0  0  0  0  0  0  0  0  0
    2.5204   11.4074   -4.1384 C   0  0  0  0  0  0  0  0  0  0  0  0
    3.3103   11.5241   -5.3364 O   0  0  0  0  0  0  0  0  0  0  0  0
    1.9210   11.9066   -5.3444 O   0  0  0  0  0  0  0  0  0  0  0  0
   -0.6581   10.8709   -1.7552 O   0  0  0  0  0  0  0  0  0  0  0  0
    3.7585    4.3554   -4.8062 C   0  0  0  0  0  0  0  0  0  0  0  0
    3.2559    3.1088   -4.8634 N   0  0  0  0  0  0  0  0  0  0  0  0
    3.9007    2.1990   -5.5469 N   0  3  0  0  0  0  0  0  0  0  0  0
    3.3945    0.9162   -5.5556 O   0  0  0  0  0  0  0  0  0  0  0  0
    5.0020    2.4313   -6.2240 N   0  0  0  0  0  0  0  0  0  0  0  0
    5.5425    3.6424   -6.1828 C   0  0  0  0  0  0  0  0  0  0  0  0
    4.9637    4.6898   -5.4631 C   0  0  0  0  0  0  0  0  0  0  0  0
    5.6550    5.9384   -5.4426 C   0  0  0  0  0  0  0  0  0  0  0  0
    6.8673    6.1221   -6.1273 C   0  0  0  0  0  0  0  0  0  0  0  0
    7.4133    5.0824   -6.8479 C   0  0  0  0  0  0  0  0  0  0  0  0
    6.7446    3.8541   -6.8667 C   0  0  0  0  0  0  0  0  0  0  0  0
    8.5951    5.1420   -7.5245 O   0  0  0  0  0  0  0  0  0  0  0  0
    9.1483    6.4412   -7.7864 C   0  0  2  0  0  0  0  0  0  0  0  0
    8.9151    7.5019   -6.7378 C   0  0  0  0  0  0  0  0  0  0  0  0
    9.6779    8.4153   -6.4876 O   0  0  0  0  0  0  0  0  0  0  0  0
    7.5784    7.4021   -6.0385 C   0  0  0  0  0  0  0  0  0  0  0  0
    7.1101    8.3390   -5.4141 O   0  0  0  0  0  0  0  0  0  0  0  0
    8.6953    6.9215   -9.1364 C   0  0  1  0  0  0  0  0  0  0  0  0
    7.2683    7.0294   -9.3479 O   0  0  0  0  0  0  0  0  0  0  0  0
    9.4607    7.9452   -9.7557 O   0  0  0  0  0  0  0  0  0  0  0  0
    9.5528    6.7172  -10.2947 C   0  0  0  0  0  0  0  0  0  0  0  0
   10.5056    5.9910  -10.4594 O   0  0  0  0  0  0  0  0  0  0  0  0
    1.2321    1.9501   -0.9842 C   0  0  0  0  0  0  0  0  0  0  0  0
    1.9415    1.1132   -1.5233 O   0  0  0  0  0  0  0  0  0  0  0  0
    0.2512    1.5893    0.1156 C   0  0  0  0  0  0  0  0  0  0  0  0
    0.4565    0.6125    0.8167 O   0  0  0  0  0  0  0  0  0  0  0  0
   -0.9652    2.4658    0.3334 C   0  0  0  0  0  0  0  0  0  0  0  0
   -1.7591    2.2674    1.2425 O   0  0  0  0  0  0  0  0  0  0  0  0
  1  2  1  0  0  0  0
  2  3  2  0  0  0  0
  3  4  1  0  0  0  0
  3 52  1  0  0  0  0
  4  5  1  0  0  0  0
  5  6  1  6  0  0  0
  5 48  1  0  0  0  0
  6  7  1  0  0  0  0
  7  8  2  0  0  0  0
  7 12  1  0  0  0  0
  8  9  1  0  0  0  0
  8 26  1  0  0  0  0
  9 10  1  0  0  0  0
 10 11  2  0  0  0  0
 10 21  1  0  0  0  0
 11 12  1  0  0  0  0
 11 13  1  0  0  0  0
 13 14  1  0  0  0  0
 13 19  1  0  0  0  0
 14 15  1  0  0  0  0
 15 16  2  0  0  0  0
 15 17  1  0  0  0  0
 17 18  1  0  0  0  0
 18 19  1  0  0  0  0
 18 25  1  0  0  0  0
 19 20  2  0  0  0  0
 20 21  1  0  0  0  0
 20 22  1  0  0  0  0
 22 23  1  0  0  0  0
 22 24  1  0  0  0  0
 23 24  1  0  0  0  0
 26 27  2  0  0  0  0
 26 32  1  0  0  0  0
 27 28  1  0  0  0  0
 28 29  1  0  0  0  0
 28 30  2  0  0  0  0
 30 31  1  0  0  0  0
 31 32  2  0  0  0  0
 31 36  1  0  0  0  0
 32 33  1  0  0  0  0
 33 34  2  0  0  0  0
 34 35  1  0  0  0  0
 34 41  1  0  0  0  0
 35 36  2  0  0  0  0
 35 37  1  0  0  0  0
 38 37  1  1  0  0  0
 38 39  1  0  0  0  0
 38 43  1  0  0  0  0
 39 40  2  0  0  0  0
 39 41  1  0  0  0  0
 41 42  2  0  0  0  0
 43 44  1  6  0  0  0
 43 45  1  0  0  0  0
 43 46  1  0  0  0  0
 45 46  1  0  0  0  0
 46 47  2  0  0  0  0
 48 49  2  0  0  0  0
 48 50  1  0  0  0  0
 50 51  2  0  0  0  0
 50 52  1  0  0  0  0
 52 53  2  0  0  0  0
M  CHG  1  28   1
M  END
$$$$