
 OpenBabel11212022203D

 54 62  0  0  1  0  0  0  0  0999 V2000
    0.0707   -1.6300    0.3510 N   0  0  0  0  0  0  0  0  0  0  0  0
    0.3645   -2.6874    0.9457 N   0  0  0  0  0  0  0  0  0  0  0  0
    1.6996   -2.6823    1.5939 C   0  0  3  0  0  0  0  0  0  0  0  0
    2.8475   -2.7954    0.7446 O   0  0  0  0  0  0  0  0  0  0  0  0
    3.0928   -1.6411   -0.0363 C   0  0  2  0  0  0  0  0  0  0  0  0
    4.2765   -1.8358   -0.8384 O   0  0  0  0  0  0  0  0  0  0  0  0
    4.2905   -2.8508   -1.7796 C   0  0  0  0  0  0  0  0  0  0  0  0
    5.4630   -3.3546   -2.2303 C   0  0  0  0  0  0  0  0  0  0  0  0
    5.4959   -4.3900   -3.1766 O   0  0  0  0  0  0  0  0  0  0  0  0
    4.3123   -4.8793   -3.7372 C   0  0  0  0  0  0  0  0  0  0  0  0
    3.1172   -4.3566   -3.4079 C   0  0  0  0  0  0  0  0  0  0  0  0
    2.9706   -3.3149   -2.3429 C   0  0  0  0  0  0  0  0  0  0  0  0
    1.8433   -4.7734   -4.0920 C   0  0  3  0  0  0  0  0  0  0  0  0
    1.3832   -3.6400   -4.8083 O   0  0  0  0  0  0  0  0  0  0  0  0
    0.2667   -3.7832   -5.5711 C   0  0  0  0  0  0  0  0  0  0  0  0
   -0.3572   -2.8132   -5.9671 O   0  0  0  0  0  0  0  0  0  0  0  0
   -0.1016   -5.0564   -5.8454 O   0  0  0  0  0  0  0  0  0  0  0  0
    0.8017   -6.1552   -5.7916 C   0  0  3  0  0  0  0  0  0  0  0  0
    2.0766   -5.8287   -5.0993 C   0  0  0  0  0  0  0  0  0  0  0  0
    3.2936   -6.3669   -5.3352 C   0  0  0  0  0  0  0  0  0  0  0  0
    4.4122   -5.9020   -4.6565 O   0  3  0  0  0  0  0  0  0  0  0  0
    3.5378   -7.4360   -6.3300 C   0  0  0  0  0  0  0  0  0  0  0  0
    3.9159   -7.1129   -7.6734 O   0  0  0  0  0  0  0  0  0  0  0  0
    4.8740   -7.7153   -6.7817 O   0  0  0  0  0  0  0  0  0  0  0  0
    0.2188   -7.1813   -5.0145 O   0  0  0  0  0  0  0  0  0  0  0  0
    6.8114   -2.8336   -1.7994 C   0  0  0  0  0  0  0  0  0  0  0  0
    6.9576   -1.4620   -1.5513 C   0  0  0  0  0  0  0  0  0  0  0  0
    8.1287   -0.9373   -1.1792 N   0  3  0  0  0  0  0  0  0  0  0  0
    8.1991    0.3801   -0.9052 F   0  0  0  0  0  0  0  0  0  0  0  0
    9.2271   -1.6552   -1.0850 N   0  0  0  0  0  0  0  0  0  0  0  0
    9.1843   -2.9651   -1.3274 C   0  0  0  0  0  0  0  0  0  0  0  0
    7.9843   -3.6270   -1.6722 C   0  0  0  0  0  0  0  0  0  0  0  0
    8.0505   -5.0304   -1.8591 C   0  0  0  0  0  0  0  0  0  0  0  0
    9.2611   -5.7330   -1.7584 C   0  0  0  0  0  0  0  0  0  0  0  0
    9.3006   -7.1696   -2.0407 C   0  0  0  0  0  0  0  0  0  0  0  0
    8.3364   -7.7061   -2.5676 O   0  0  0  0  0  0  0  0  0  0  0  0
   10.5831   -7.9051   -1.6997 C   0  0  0  0  0  0  0  0  0  0  0  0
   10.7210   -9.0776   -2.0102 O   0  0  0  0  0  0  0  0  0  0  0  0
   11.5918   -7.0844   -0.9204 C   0  0  1  0  0  0  0  0  0  0  0  0
   11.6357   -5.6975   -1.3004 O   0  0  0  0  0  0  0  0  0  0  0  0
   10.4274   -5.0753   -1.4287 C   0  0  0  0  0  0  0  0  0  0  0  0
   10.3701   -3.6978   -1.2288 C   0  0  0  0  0  0  0  0  0  0  0  0
   11.5020   -3.0473   -0.9152 F   0  0  0  0  0  0  0  0  0  0  0  0
   11.3641   -7.2051    0.5541 C   0  0  1  0  0  0  0  0  0  0  0  0
   10.0787   -6.7401    1.0531 O   0  0  0  0  0  0  0  0  0  0  0  0
   11.8875   -8.3732    1.1657 O   0  0  0  0  0  0  0  0  0  0  0  0
   12.4487   -7.2067    1.5351 C   0  0  0  0  0  0  0  0  0  0  0  0
   12.4625   -6.6560    2.6216 O   0  0  0  0  0  0  0  0  0  0  0  0
    3.3891   -0.4370    0.8393 C   0  0  0  0  0  0  0  0  0  0  0  0
    4.3498    0.3089    0.7024 O   0  0  0  0  0  0  0  0  0  0  0  0
    2.3852   -0.2714    1.9531 C   0  0  0  0  0  0  0  0  0  0  0  0
    2.0697    0.8447    2.3215 O   0  0  0  0  0  0  0  0  0  0  0  0
    1.7726   -1.5098    2.5658 C   0  0  0  0  0  0  0  0  0  0  0  0
    1.3936   -1.5295    3.7236 O   0  0  0  0  0  0  0  0  0  0  0  0
  1  2  2  0  0  0  0
  2  3  1  0  0  0  0
  3  4  1  0  0  0  0
  3 53  1  0  0  0  0
  4  5  1  0  0  0  0
  5  6  1  6  0  0  0
  5 49  1  0  0  0  0
  6  7  1  0  0  0  0
  7  8  2  0  0  0  0
  7 12  1  0  0  0  0
  8  9  1  0  0  0  0
  8 26  1  0  0  0  0
  9 10  1  0  0  0  0
 10 11  2  0  0  0  0
 10 21  1  0  0  0  0
 11 12  1  0  0  0  0
 11 13  1  0  0  0  0
 13 14  1  0  0  0  0
 13 19  1  0  0  0  0
 14 15  1  0  0  0  0
 15 16  2  0  0  0  0
 15 17  1  0  0  0  0
 17 18  1  0  0  0  0
 18 19  1  0  0  0  0
 18 25  1  0  0  0  0
 19 20  2  0  0  0  0
 20 21  1  0  0  0  0
 20 22  1  0  0  0  0
 22 23  1  0  0  0  0
 22 24  1  0  0  0  0
 23 24  1  0  0  0  0
 26 27  2  0  0  0  0
 26 32  1  0  0  0  0
 27 28  1  0  0  0  0
 28 29  1  0  0  0  0
 28 30  2  0  0  0  0
 30 31  1  0  0  0  0
 31 32  2  0  0  0  0
 31 42  1  0  0  0  0
 32 33  1  0  0  0  0
 33 34  2  0  0  0  0
 34 35  1  0  0  0  0
 34 41  1  0  0  0  0
 35 36  2  0  0  0  0
 35 37  1  0  0  0  0
 37 38  2  0  0  0  0
 39 37  1  6  0  0  0
 39 40  1  0  0  0  0
 39 44  1  0  0  0  0
 40 41  1  0  0  0  0
 41 42  2  0  0  0  0
 42 43  1  0  0  0  0
 44 45  1  1  0  0  0
 44 46  1  0  0  0  0
 44 47  1  0  0  0  0
 46 47  1  0  0  0  0
 47 48  2  0  0  0  0
 49 50  2  0  0  0  0
 49 51  1  0  0  0  0
 51 52  2  0  0  0  0
 51 53  1  0  0  0  0
 53 54  2  0  0  0  0
M  CHG  2  21   1  28   1
M  END
$$$$