
 OpenBabel11152013543D

 53 61  0  0  1  0  0  0  0  0999 V2000
   -0.8136   -3.6474   -4.9509 O   0  0  0  0  0  0  0  0  0  0  0  0
   -0.5062   -2.5815   -4.1451 C   0  0  0  0  0  0  0  0  0  0  0  0
    0.0515   -2.7305   -2.9383 C   0  0  0  0  0  0  0  0  0  0  0  0
    0.3125   -3.9893   -2.4244 O   0  0  0  0  0  0  0  0  0  0  0  0
    1.5400   -4.0471   -1.7029 C   0  0  2  0  0  0  0  0  0  0  0  0
    1.8222   -5.3926   -1.2842 O   0  0  0  0  0  0  0  0  0  0  0  0
    1.9587   -6.3367   -2.2921 C   0  0  0  0  0  0  0  0  0  0  0  0
    1.6193   -7.6219   -2.0703 C   0  0  0  0  0  0  0  0  0  0  0  0
    1.7731   -8.6303   -3.0068 O   0  0  0  0  0  0  0  0  0  0  0  0
    2.3106   -8.3158   -4.2439 C   0  0  0  0  0  0  0  0  0  0  0  0
    2.7092   -7.0714   -4.5625 C   0  0  0  0  0  0  0  0  0  0  0  0
    2.5758   -5.9281   -3.6087 C   0  0  0  0  0  0  0  0  0  0  0  0
    3.2833   -6.7739   -5.9297 C   0  0  3  0  0  0  0  0  0  0  0  0
    4.5921   -6.2449   -5.7335 O   0  0  0  0  0  0  0  0  0  0  0  0
    5.4535   -6.1230   -6.7750 C   0  0  0  0  0  0  0  0  0  0  0  0
    6.4912   -5.4842   -6.6604 O   0  0  0  0  0  0  0  0  0  0  0  0
    5.1323   -6.7471   -7.9328 O   0  0  0  0  0  0  0  0  0  0  0  0
    4.0067   -7.5986   -8.0979 C   0  0  3  0  0  0  0  0  0  0  0  0
    3.3887   -7.9665   -6.8100 C   0  0  0  0  0  0  0  0  0  0  0  0
    2.9673   -9.1893   -6.4200 C   0  0  0  0  0  0  0  0  0  0  0  0
    2.4241   -9.3330   -5.1530 N   0  0  0  0  0  0  0  0  0  0  0  0
    3.0337  -10.4111   -7.2518 C   0  0  0  0  0  0  0  0  0  0  0  0
    4.2159  -11.2237   -7.2970 O   0  0  0  0  0  0  0  0  0  0  0  0
    3.0194  -11.7270   -6.6698 O   0  0  0  0  0  0  0  0  0  0  0  0
    3.0255   -6.9156   -8.8592 O   0  0  0  0  0  0  0  0  0  0  0  0
    1.0851   -8.0751   -0.7813 C   0  0  0  0  0  0  0  0  0  0  0  0
    2.0235   -8.4905    0.0859 N   0  0  0  0  0  0  0  0  0  0  0  0
    1.6284   -8.8576    1.2789 N   0  3  0  0  0  0  0  0  0  0  0  0
    2.5982   -9.3409    2.1723 N   0  0  0  0  0  0  0  0  0  0  0  0
    0.3826   -8.8121    1.6915 N   0  0  0  0  0  0  0  0  0  0  0  0
   -0.5630   -8.4136    0.8426 C   0  0  0  0  0  0  0  0  0  0  0  0
   -0.2716   -8.0395   -0.4670 C   0  0  0  0  0  0  0  0  0  0  0  0
   -1.3237   -7.6731   -1.3471 C   0  0  0  0  0  0  0  0  0  0  0  0
   -2.6470   -7.6662   -0.8970 C   0  0  0  0  0  0  0  0  0  0  0  0
   -2.9287   -7.9737    0.4258 C   0  0  0  0  0  0  0  0  0  0  0  0
   -1.8875   -8.3644    1.2732 C   0  0  0  0  0  0  0  0  0  0  0  0
   -4.1760   -7.9345    0.9850 O   0  0  0  0  0  0  0  0  0  0  0  0
   -5.1821   -7.2037    0.2653 C   0  0  2  0  0  0  0  0  0  0  0  0
   -5.1411   -7.4216   -1.2296 C   0  0  0  0  0  0  0  0  0  0  0  0
   -6.1222   -7.6223   -1.9311 O   0  0  0  0  0  0  0  0  0  0  0  0
   -3.7510   -7.3693   -1.8188 C   0  0  0  0  0  0  0  0  0  0  0  0
   -3.5547   -7.1315   -2.9986 O   0  0  0  0  0  0  0  0  0  0  0  0
   -5.1170   -5.7439    0.5950 C   0  0  1  0  0  0  0  0  0  0  0  0
   -3.8693   -5.0599    0.3057 O   0  0  0  0  0  0  0  0  0  0  0  0
   -6.3032   -5.0089    0.3041 O   0  0  0  0  0  0  0  0  0  0  0  0
   -5.9601   -5.0963    1.6090 C   0  0  0  0  0  0  0  0  0  0  0  0
   -5.6643   -4.2310    2.3902 O   0  0  0  0  0  0  0  0  0  0  0  0
    1.4339   -3.1919   -0.4531 C   0  0  0  0  0  0  0  0  0  0  0  0
    1.7858   -3.5267    0.6701 O   0  0  0  0  0  0  0  0  0  0  0  0
    0.8378   -1.8307   -0.7311 C   0  0  0  0  0  0  0  0  0  0  0  0
    0.7192   -1.0145    0.1681 O   0  0  0  0  0  0  0  0  0  0  0  0
    0.3590   -1.5143   -2.1352 C   0  0  0  0  0  0  0  0  0  0  0  0
    0.2824   -0.3731   -2.5535 O   0  0  0  0  0  0  0  0  0  0  0  0
  1  2  1  0  0  0  0
  2  3  2  0  0  0  0
  3  4  1  0  0  0  0
  3 52  1  0  0  0  0
  4  5  1  0  0  0  0
  5  6  1  1  0  0  0
  5 48  1  0  0  0  0
  6  7  1  0  0  0  0
  7  8  2  0  0  0  0
  7 12  1  0  0  0  0
  8  9  1  0  0  0  0
  8 26  1  0  0  0  0
  9 10  1  0  0  0  0
 10 11  2  0  0  0  0
 10 21  1  0  0  0  0
 11 12  1  0  0  0  0
 11 13  1  0  0  0  0
 13 14  1  0  0  0  0
 13 19  1  0  0  0  0
 14 15  1  0  0  0  0
 15 16  2  0  0  0  0
 15 17  1  0  0  0  0
 17 18  1  0  0  0  0
 18 19  1  0  0  0  0
 18 25  1  0  0  0  0
 19 20  2  0  0  0  0
 20 21  1  0  0  0  0
 20 22  1  0  0  0  0
 22 23  1  0  0  0  0
 22 24  1  0  0  0  0
 23 24  1  0  0  0  0
 26 27  2  0  0  0  0
 26 32  1  0  0  0  0
 27 28  1  0  0  0  0
 28 29  1  0  0  0  0
 28 30  2  0  0  0  0
 30 31  1  0  0  0  0
 31 32  2  0  0  0  0
 31 36  1  0  0  0  0
 32 33  1  0  0  0  0
 33 34  2  0  0  0  0
 34 35  1  0  0  0  0
 34 41  1  0  0  0  0
 35 36  2  0  0  0  0
 35 37  1  0  0  0  0
 38 37  1  1  0  0  0
 38 39  1  0  0  0  0
 38 43  1  0  0  0  0
 39 40  2  0  0  0  0
 39 41  1  0  0  0  0
 41 42  2  0  0  0  0
 43 44  1  6  0  0  0
 43 45  1  0  0  0  0
 43 46  1  0  0  0  0
 45 46  1  0  0  0  0
 46 47  2  0  0  0  0
 48 49  2  0  0  0  0
 48 50  1  0  0  0  0
 50 51  2  0  0  0  0
 50 52  1  0  0  0  0
 52 53  2  0  0  0  0
M  CHG  1  28   1
M  END
$$$$