
 OpenBabel11272002313D

 54 62  0  0  1  0  0  0  0  0999 V2000
   -0.0851    3.2814   -3.7513 O   0  0  0  0  0  0  0  0  0  0  0  0
    0.8193    3.9111   -4.5648 C   0  0  0  0  0  0  0  0  0  0  0  0
    1.8497    4.6111   -4.0820 C   0  0  0  0  0  0  0  0  0  0  0  0
    2.0287    4.7735   -2.7210 O   0  0  0  0  0  0  0  0  0  0  0  0
    3.3644    4.5240   -2.2858 C   0  0  2  0  0  0  0  0  0  0  0  0
    3.4980    4.7242   -0.8612 O   0  0  0  0  0  0  0  0  0  0  0  0
    3.3396    6.0124   -0.3598 C   0  0  0  0  0  0  0  0  0  0  0  0
    4.0051    6.4303    0.7393 C   0  0  0  0  0  0  0  0  0  0  0  0
    3.8932    7.7225    1.2532 O   0  0  0  0  0  0  0  0  0  0  0  0
    3.0191    8.6261    0.6604 C   0  0  0  0  0  0  0  0  0  0  0  0
    2.2313    8.2675   -0.3705 C   0  0  0  0  0  0  0  0  0  0  0  0
    2.3197    6.9142   -1.0015 C   0  0  0  0  0  0  0  0  0  0  0  0
    1.2546    9.2168   -1.0022 C   0  0  3  0  0  0  0  0  0  0  0  0
   -0.0559    8.7198   -0.7956 O   0  0  0  0  0  0  0  0  0  0  0  0
   -1.0746    9.5497   -1.1097 C   0  0  0  0  0  0  0  0  0  0  0  0
   -2.2687    9.0957   -1.1385 N   0  0  0  0  0  0  0  0  0  0  0  0
   -0.8159   10.8464   -1.3835 O   0  0  0  0  0  0  0  0  0  0  0  0
    0.3327   11.4275   -0.9926 C   0  0  0  0  0  0  0  0  0  0  0  0
    0.5792   12.6137   -1.1473 O   0  0  0  0  0  0  0  0  0  0  0  0
    1.3135   10.5428   -0.3708 C   0  0  0  0  0  0  0  0  0  0  0  0
    2.1503   10.8766    0.6348 C   0  0  0  0  0  0  0  0  0  0  0  0
    2.9958    9.9058    1.1665 O   0  3  0  0  0  0  0  0  0  0  0  0
    2.2449   12.2192    1.2677 C   0  0  0  0  0  0  0  0  0  0  0  0
    2.6474   12.3431    2.6433 O   0  0  0  0  0  0  0  0  0  0  0  0
    3.5299   12.7756    1.5919 O   0  0  0  0  0  0  0  0  0  0  0  0
    4.8460    5.5332    1.5596 C   0  0  0  0  0  0  0  0  0  0  0  0
    4.1541    4.9351    2.5569 N   0  0  0  0  0  0  0  0  0  0  0  0
    4.8347    4.0836    3.3443 C   0  0  0  0  0  0  0  0  0  0  0  0
    4.1673    3.5155    4.3579 F   0  0  0  0  0  0  0  0  0  0  0  0
    6.1714    3.7771    3.1832 C   0  0  0  0  0  0  0  0  0  0  0  0
    6.9090    4.4066    2.1660 C   0  0  0  0  0  0  0  0  0  0  0  0
    6.2331    5.3541    1.3550 C   0  0  0  0  0  0  0  0  0  0  0  0
    6.9841    6.1046    0.4317 C   0  0  0  0  0  0  0  0  0  0  0  0
    8.3681    5.9400    0.3307 C   0  0  0  0  0  0  0  0  0  0  0  0
    9.1443    6.8816   -0.4793 C   0  0  0  0  0  0  0  0  0  0  0  0
    8.6176    7.7489   -1.1574 O   0  0  0  0  0  0  0  0  0  0  0  0
   10.6409    6.7680   -0.3546 C   0  0  0  0  0  0  0  0  0  0  0  0
   11.3550    7.7528   -0.4653 O   0  0  0  0  0  0  0  0  0  0  0  0
   11.1144    5.3650   -0.0802 C   0  0  1  0  0  0  0  0  0  0  0  0
   10.3707    4.6895    0.9457 O   0  0  0  0  0  0  0  0  0  0  0  0
    9.0264    4.9514    1.0480 C   0  0  0  0  0  0  0  0  0  0  0  0
    8.2938    4.1459    1.9440 C   0  0  0  0  0  0  0  0  0  0  0  0
    8.9989    3.2214    2.7516 N   0  0  0  0  0  0  0  0  0  0  0  0
   11.1475    4.5454   -1.3399 C   0  0  1  0  0  0  0  0  0  0  0  0
    9.9043    4.3910   -2.0561 O   0  0  0  0  0  0  0  0  0  0  0  0
   12.2870    4.7455   -2.1840 O   0  0  0  0  0  0  0  0  0  0  0  0
   12.1832    3.5630   -1.5669 C   0  0  0  0  0  0  0  0  0  0  0  0
   12.9469    2.9813   -0.8203 O   0  0  0  0  0  0  0  0  0  0  0  0
    4.4499    5.2957   -3.0442 C   0  0  0  0  0  0  0  0  0  0  0  0
    5.6037    5.4549   -2.6735 O   0  0  0  0  0  0  0  0  0  0  0  0
    3.9453    5.9204   -4.3187 C   0  0  0  0  0  0  0  0  0  0  0  0
    4.3611    7.0102   -4.6767 O   0  0  0  0  0  0  0  0  0  0  0  0
    2.7995    5.2458   -5.0324 C   0  0  0  0  0  0  0  0  0  0  0  0
    2.7113    5.2216   -6.2448 O   0  0  0  0  0  0  0  0  0  0  0  0
  1  2  1  0  0  0  0
  2  3  2  0  0  0  0
  3  4  1  0  0  0  0
  3 53  1  0  0  0  0
  4  5  1  0  0  0  0
  5  6  1  1  0  0  0
  5 49  1  0  0  0  0
  6  7  1  0  0  0  0
  7  8  2  0  0  0  0
  7 12  1  0  0  0  0
  8  9  1  0  0  0  0
  8 26  1  0  0  0  0
  9 10  1  0  0  0  0
 10 11  2  0  0  0  0
 10 22  1  0  0  0  0
 11 12  1  0  0  0  0
 11 13  1  0  0  0  0
 13 14  1  0  0  0  0
 13 20  1  0  0  0  0
 14 15  1  0  0  0  0
 15 16  2  0  0  0  0
 15 17  1  0  0  0  0
 17 18  1  0  0  0  0
 18 19  2  0  0  0  0
 18 20  1  0  0  0  0
 20 21  2  0  0  0  0
 21 22  1  0  0  0  0
 21 23  1  0  0  0  0
 23 24  1  0  0  0  0
 23 25  1  0  0  0  0
 24 25  1  0  0  0  0
 26 27  2  0  0  0  0
 26 32  1  0  0  0  0
 27 28  1  0  0  0  0
 28 29  1  0  0  0  0
 28 30  2  0  0  0  0
 30 31  1  0  0  0  0
 31 32  2  0  0  0  0
 31 42  1  0  0  0  0
 32 33  1  0  0  0  0
 33 34  2  0  0  0  0
 34 35  1  0  0  0  0
 34 41  1  0  0  0  0
 35 36  2  0  0  0  0
 35 37  1  0  0  0  0
 37 38  2  0  0  0  0
 39 37  1  6  0  0  0
 39 40  1  0  0  0  0
 39 44  1  0  0  0  0
 40 41  1  0  0  0  0
 41 42  2  0  0  0  0
 42 43  1  0  0  0  0
 44 45  1  6  0  0  0
 44 46  1  0  0  0  0
 44 47  1  0  0  0  0
 46 47  1  0  0  0  0
 47 48  2  0  0  0  0
 49 50  2  0  0  0  0
 49 51  1  0  0  0  0
 51 52  2  0  0  0  0
 51 53  1  0  0  0  0
 53 54  2  0  0  0  0
M  CHG  1  22   1
M  END
$$$$