
 OpenBabel11232003253D

 54 62  0  0  1  0  0  0  0  0999 V2000
    3.6385   -3.9811   -4.1362 O   0  0  0  0  0  0  0  0  0  0  0  0
    3.5219   -2.6926   -3.6592 C   0  0  0  0  0  0  0  0  0  0  0  0
    2.9883   -2.3817   -2.4693 C   0  0  0  0  0  0  0  0  0  0  0  0
    2.4405   -3.3507   -1.6497 O   0  0  0  0  0  0  0  0  0  0  0  0
    2.9063   -3.2654   -0.3080 C   0  0  2  0  0  0  0  0  0  0  0  0
    2.4288   -4.3805    0.5084 O   0  0  0  0  0  0  0  0  0  0  0  0
    2.7188   -5.6923    0.1568 C   0  0  0  0  0  0  0  0  0  0  0  0
    2.2815   -6.7507    0.8890 C   0  0  0  0  0  0  0  0  0  0  0  0
    2.4760   -8.0819    0.4198 O   0  0  0  0  0  0  0  0  0  0  0  0
    3.0318   -8.3256   -0.8533 C   0  0  0  0  0  0  0  0  0  0  0  0
    3.5857   -7.3255   -1.5444 C   0  0  0  0  0  0  0  0  0  0  0  0
    3.5241   -5.9104   -1.0891 C   0  0  0  0  0  0  0  0  0  0  0  0
    4.1867   -7.4930   -2.8911 C   0  0  3  0  0  0  0  0  0  0  0  0
    5.5110   -6.9993   -2.8861 O   0  0  0  0  0  0  0  0  0  0  0  0
    5.9928   -6.8335   -4.1526 C   0  0  0  0  0  0  0  0  0  0  0  0
    6.8099   -5.9906   -4.4577 O   0  0  0  0  0  0  0  0  0  0  0  0
    5.4332   -7.7152   -5.0367 O   0  0  0  0  0  0  0  0  0  0  0  0
    5.2174   -8.9858   -4.4724 C   0  0  3  0  0  0  0  0  0  0  0  0
    4.2655   -8.9330   -3.3007 C   0  0  0  0  0  0  0  0  0  0  0  0
    3.6017   -9.9352   -2.6472 C   0  0  0  0  0  0  0  0  0  0  0  0
    2.9669   -9.6137   -1.3902 O   0  3  0  0  0  0  0  0  0  0  0  0
    3.5955  -11.3830   -3.1215 C   0  0  0  0  0  0  0  0  0  0  0  0
    3.7906  -11.8185   -4.5670 N   0  3  0  0  0  0  0  0  0  0  0  0
    2.7248  -11.7915   -4.2933 N   0  3  0  0  0  0  0  0  0  0  0  0
    4.5782   -9.8217   -5.4315 O   0  0  0  0  0  0  0  0  0  0  0  0
    1.5900   -6.6163    2.2429 C   0  0  0  0  0  0  0  0  0  0  0  0
    1.9278   -5.5446    3.0837 C   0  0  0  0  0  0  0  0  0  0  0  0
    1.3772   -5.3912    4.2955 N   0  3  0  0  0  0  0  0  0  0  0  0
    1.7238   -4.3252    5.0445 F   0  0  0  0  0  0  0  0  0  0  0  0
    0.5283   -6.2583    4.8036 N   0  0  0  0  0  0  0  0  0  0  0  0
    0.1610   -7.3214    4.0925 C   0  0  0  0  0  0  0  0  0  0  0  0
    0.6541   -7.5443    2.7825 C   0  0  0  0  0  0  0  0  0  0  0  0
    0.1706   -8.6843    2.1074 C   0  0  0  0  0  0  0  0  0  0  0  0
   -0.6879   -9.6039    2.7248 C   0  0  0  0  0  0  0  0  0  0  0  0
   -1.0670  -10.8191    2.0086 C   0  0  0  0  0  0  0  0  0  0  0  0
   -0.4714  -11.1211    0.9780 O   0  0  0  0  0  0  0  0  0  0  0  0
   -2.1510  -11.6660    2.6427 C   0  0  0  0  0  0  0  0  0  0  0  0
   -2.2932  -12.8169    2.2603 O   0  0  0  0  0  0  0  0  0  0  0  0
   -2.9619  -10.9529    3.7129 C   0  0  1  0  0  0  0  0  0  0  0  0
   -2.1152  -10.1714    4.5901 O   0  0  0  0  0  0  0  0  0  0  0  0
   -1.1773   -9.3769    3.9936 C   0  0  0  0  0  0  0  0  0  0  0  0
   -0.7373   -8.2346    4.6625 C   0  0  0  0  0  0  0  0  0  0  0  0
   -1.2148   -7.9843    5.8915 F   0  0  0  0  0  0  0  0  0  0  0  0
   -4.1109  -10.1595    3.1244 C   0  0  1  0  0  0  0  0  0  0  0  0
   -5.0546  -10.9019    2.3323 O   0  0  0  0  0  0  0  0  0  0  0  0
   -4.6715   -9.1488    3.9761 O   0  0  0  0  0  0  0  0  0  0  0  0
   -4.0791   -8.7311    2.8595 C   0  0  0  0  0  0  0  0  0  0  0  0
   -3.1484   -7.9732    2.6286 O   0  0  0  0  0  0  0  0  0  0  0  0
    2.3862   -1.9841    0.3145 C   0  0  0  0  0  0  0  0  0  0  0  0
    1.9108   -1.9298    1.4414 O   0  0  0  0  0  0  0  0  0  0  0  0
    2.5433   -0.7670   -0.5833 C   0  0  0  0  0  0  0  0  0  0  0  0
    2.3691    0.3458   -0.1193 O   0  0  0  0  0  0  0  0  0  0  0  0
    2.9539   -0.9530   -2.0394 C   0  0  0  0  0  0  0  0  0  0  0  0
    3.2630   -0.0262   -2.7641 O   0  0  0  0  0  0  0  0  0  0  0  0
  1  2  1  0  0  0  0
  2  3  2  0  0  0  0
  3  4  1  0  0  0  0
  3 53  1  0  0  0  0
  4  5  1  0  0  0  0
  5  6  1  1  0  0  0
  5 49  1  0  0  0  0
  6  7  1  0  0  0  0
  7  8  2  0  0  0  0
  7 12  1  0  0  0  0
  8  9  1  0  0  0  0
  8 26  1  0  0  0  0
  9 10  1  0  0  0  0
 10 11  2  0  0  0  0
 10 21  1  0  0  0  0
 11 12  1  0  0  0  0
 11 13  1  0  0  0  0
 13 14  1  0  0  0  0
 13 19  1  0  0  0  0
 14 15  1  0  0  0  0
 15 16  2  0  0  0  0
 15 17  1  0  0  0  0
 17 18  1  0  0  0  0
 18 19  1  0  0  0  0
 18 25  1  0  0  0  0
 19 20  2  0  0  0  0
 20 21  1  0  0  0  0
 20 22  1  0  0  0  0
 22 23  1  0  0  0  0
 22 24  1  0  0  0  0
 23 24  3  0  0  0  0
 26 27  2  0  0  0  0
 26 32  1  0  0  0  0
 27 28  1  0  0  0  0
 28 29  1  0  0  0  0
 28 30  2  0  0  0  0
 30 31  1  0  0  0  0
 31 32  2  0  0  0  0
 31 42  1  0  0  0  0
 32 33  1  0  0  0  0
 33 34  2  0  0  0  0
 34 35  1  0  0  0  0
 34 41  1  0  0  0  0
 35 36  2  0  0  0  0
 35 37  1  0  0  0  0
 37 38  2  0  0  0  0
 39 37  1  6  0  0  0
 39 40  1  0  0  0  0
 39 44  1  0  0  0  0
 40 41  1  0  0  0  0
 41 42  2  0  0  0  0
 42 43  1  0  0  0  0
 44 45  1  6  0  0  0
 44 46  1  0  0  0  0
 44 47  1  0  0  0  0
 46 47  1  0  0  0  0
 47 48  2  0  0  0  0
 49 50  2  0  0  0  0
 49 51  1  0  0  0  0
 51 52  2  0  0  0  0
 51 53  1  0  0  0  0
 53 54  2  0  0  0  0
M  CHG  4  21   1  23   1  24   1  28   1
M  END
$$$$