
 OpenBabel11222000253D

 54 62  0  0  1  0  0  0  0  0999 V2000
    0.4340    6.6220    3.8902 O   0  0  0  0  0  0  0  0  0  0  0  0
    0.3877    6.2871    2.5592 C   0  0  0  0  0  0  0  0  0  0  0  0
    0.9617    5.1795    2.0802 C   0  0  0  0  0  0  0  0  0  0  0  0
    1.7022    4.3532    2.8962 O   0  0  0  0  0  0  0  0  0  0  0  0
    1.2954    3.0031    2.8451 C   0  0  3  0  0  0  0  0  0  0  0  0
    2.2668    2.1438    3.4947 O   0  0  0  0  0  0  0  0  0  0  0  0
    2.5133    2.2849    4.8485 C   0  0  0  0  0  0  0  0  0  0  0  0
    2.9443    1.2370    5.5872 C   0  0  0  0  0  0  0  0  0  0  0  0
    3.2971    1.3882    6.9338 O   0  0  0  0  0  0  0  0  0  0  0  0
    3.2731    2.6406    7.5438 C   0  0  0  0  0  0  0  0  0  0  0  0
    2.8170    3.7165    6.8836 C   0  0  0  0  0  0  0  0  0  0  0  0
    2.3972    3.6586    5.4510 C   0  0  0  0  0  0  0  0  0  0  0  0
    2.6964    5.0615    7.5318 C   0  0  3  0  0  0  0  0  0  0  0  0
    1.3138    5.3525    7.6167 O   0  0  0  0  0  0  0  0  0  0  0  0
    0.9631    6.5236    8.2102 C   0  0  0  0  0  0  0  0  0  0  0  0
   -0.1549    6.9938    8.0723 O   0  0  0  0  0  0  0  0  0  0  0  0
    1.9190    7.1147    8.9667 O   0  0  0  0  0  0  0  0  0  0  0  0
    3.0531    6.4224    9.4836 C   0  0  3  0  0  0  0  0  0  0  0  0
    3.1926    5.0529    8.9247 C   0  0  0  0  0  0  0  0  0  0  0  0
    3.6770    3.9447    9.5297 C   0  0  0  0  0  0  0  0  0  0  0  0
    3.7096    2.7339    8.8477 O   0  3  0  0  0  0  0  0  0  0  0  0
    4.2376    3.9119   10.9019 C   0  0  0  0  0  0  0  0  0  0  0  0
    4.7194    2.6730   11.4554 O   0  0  0  0  0  0  0  0  0  0  0  0
    5.6434    3.7209   11.1071 O   0  0  0  0  0  0  0  0  0  0  0  0
    4.2246    7.1030    9.0876 O   0  0  0  0  0  0  0  0  0  0  0  0
    3.0885   -0.1544    5.0387 C   0  0  0  0  0  0  0  0  0  0  0  0
    2.2169   -0.5785    4.0302 C   0  0  0  0  0  0  0  0  0  0  0  0
    2.3197   -1.7845    3.4708 N   0  3  0  0  0  0  0  0  0  0  0  0
    1.4664   -2.1191    2.4831 F   0  0  0  0  0  0  0  0  0  0  0  0
    3.2179   -2.6647    3.8572 N   0  0  0  0  0  0  0  0  0  0  0  0
    4.0668   -2.3559    4.8407 C   0  0  0  0  0  0  0  0  0  0  0  0
    4.0482   -1.1002    5.4845 C   0  0  0  0  0  0  0  0  0  0  0  0
    4.9918   -0.8859    6.5220 C   0  0  0  0  0  0  0  0  0  0  0  0
    5.9069   -1.8685    6.9096 C   0  0  0  0  0  0  0  0  0  0  0  0
    6.8141   -1.6180    8.0363 C   0  0  0  0  0  0  0  0  0  0  0  0
    6.6841   -0.6026    8.7048 O   0  0  0  0  0  0  0  0  0  0  0  0
    7.8773   -2.6680    8.2905 C   0  0  0  0  0  0  0  0  0  0  0  0
    8.5180   -2.6497    9.3272 O   0  0  0  0  0  0  0  0  0  0  0  0
    8.0612   -3.6121    7.1165 C   0  0  3  0  0  0  0  0  0  0  0  0
    6.8114   -4.0766    6.5778 O   0  0  0  0  0  0  0  0  0  0  0  0
    5.9392   -3.0791    6.2529 C   0  0  0  0  0  0  0  0  0  0  0  0
    5.0076   -3.3088    5.2400 C   0  0  0  0  0  0  0  0  0  0  0  0
    5.0230   -4.4930    4.6094 F   0  0  0  0  0  0  0  0  0  0  0  0
    8.9009   -4.7941    7.4773 C   0  0  3  0  0  0  0  0  0  0  0  0
    8.3694   -5.6995    8.4605 O   0  0  0  0  0  0  0  0  0  0  0  0
    9.5605   -5.4403    6.3960 O   0  0  0  0  0  0  0  0  0  0  0  0
   10.3488   -4.7411    7.2525 C   0  0  0  0  0  0  0  0  0  0  0  0
   11.0579   -3.7951    7.0004 O   0  0  0  0  0  0  0  0  0  0  0  0
    1.2212    2.4070    1.4484 C   0  0  0  0  0  0  0  0  0  0  0  0
    1.0896    1.2077    1.2271 O   0  0  0  0  0  0  0  0  0  0  0  0
    1.3647    3.4397    0.3547 C   0  0  0  0  0  0  0  0  0  0  0  0
    1.9619    3.1611   -0.6690 O   0  0  0  0  0  0  0  0  0  0  0  0
    0.8510    4.8392    0.6375 C   0  0  0  0  0  0  0  0  0  0  0  0
    0.3583    5.5492   -0.2154 O   0  0  0  0  0  0  0  0  0  0  0  0
  1  2  1  0  0  0  0
  2  3  2  0  0  0  0
  3  4  1  0  0  0  0
  3 53  1  0  0  0  0
  4  5  1  0  0  0  0
  5  6  1  0  0  0  0
  5 49  1  0  0  0  0
  6  7  1  0  0  0  0
  7  8  2  0  0  0  0
  7 12  1  0  0  0  0
  8  9  1  0  0  0  0
  8 26  1  0  0  0  0
  9 10  1  0  0  0  0
 10 11  2  0  0  0  0
 10 21  1  0  0  0  0
 11 12  1  0  0  0  0
 11 13  1  0  0  0  0
 13 14  1  0  0  0  0
 13 19  1  0  0  0  0
 14 15  1  0  0  0  0
 15 16  2  0  0  0  0
 15 17  1  0  0  0  0
 17 18  1  0  0  0  0
 18 19  1  0  0  0  0
 18 25  1  0  0  0  0
 19 20  2  0  0  0  0
 20 21  1  0  0  0  0
 20 22  1  0  0  0  0
 22 23  1  0  0  0  0
 22 24  1  0  0  0  0
 23 24  1  0  0  0  0
 26 27  2  0  0  0  0
 26 32  1  0  0  0  0
 27 28  1  0  0  0  0
 28 29  1  0  0  0  0
 28 30  2  0  0  0  0
 30 31  1  0  0  0  0
 31 32  2  0  0  0  0
 31 42  1  0  0  0  0
 32 33  1  0  0  0  0
 33 34  2  0  0  0  0
 34 35  1  0  0  0  0
 34 41  1  0  0  0  0
 35 36  2  0  0  0  0
 35 37  1  0  0  0  0
 37 38  2  0  0  0  0
 37 39  1  0  0  0  0
 39 40  1  0  0  0  0
 39 44  1  0  0  0  0
 40 41  1  0  0  0  0
 41 42  2  0  0  0  0
 42 43  1  0  0  0  0
 44 45  1  0  0  0  0
 44 46  1  0  0  0  0
 44 47  1  0  0  0  0
 46 47  1  0  0  0  0
 47 48  2  0  0  0  0
 49 50  2  0  0  0  0
 49 51  1  0  0  0  0
 51 52  2  0  0  0  0
 51 53  1  0  0  0  0
 53 54  2  0  0  0  0
M  CHG  2  21   1  28   1
M  END
$$$$