
 OpenBabel11152012113D

 52 60  0  0  1  0  0  0  0  0999 V2000
    6.6282   -1.6210    6.6233 O   0  0  0  0  0  0  0  0  0  0  0  0
    6.2898   -0.3717    6.1701 C   0  0  0  0  0  0  0  0  0  0  0  0
    5.3408   -0.1532    5.2495 C   0  0  0  0  0  0  0  0  0  0  0  0
    4.6729   -1.1938    4.6337 O   0  0  0  0  0  0  0  0  0  0  0  0
    3.2737   -0.9680    4.4391 C   0  0  2  0  0  0  0  0  0  0  0  0
    2.6030   -2.1233    3.9153 O   0  0  0  0  0  0  0  0  0  0  0  0
    2.5969   -3.2871    4.6774 C   0  0  0  0  0  0  0  0  0  0  0  0
    2.0155   -4.4148    4.2123 C   0  0  0  0  0  0  0  0  0  0  0  0
    2.0409   -5.6284    4.8990 O   0  0  0  0  0  0  0  0  0  0  0  0
    2.7157   -5.7067    6.1080 C   0  0  0  0  0  0  0  0  0  0  0  0
    3.2685   -4.6302    6.6871 C   0  0  0  0  0  0  0  0  0  0  0  0
    3.2378   -3.2893    6.0431 C   0  0  0  0  0  0  0  0  0  0  0  0
    4.0210   -4.7426    7.9875 C   0  0  3  0  0  0  0  0  0  0  0  0
    3.3874   -3.8744    8.9256 O   0  0  0  0  0  0  0  0  0  0  0  0
    3.5992   -3.9930   10.2584 C   0  0  0  0  0  0  0  0  0  0  0  0
    3.1828   -3.1484   11.0412 O   0  0  0  0  0  0  0  0  0  0  0  0
    4.2541   -5.0945   10.6992 O   0  0  0  0  0  0  0  0  0  0  0  0
    4.7538   -6.1143    9.8433 C   0  0  3  0  0  0  0  0  0  0  0  0
    4.0537   -6.1189    8.5448 C   0  0  0  0  0  0  0  0  0  0  0  0
    3.4913   -7.1671    7.9016 C   0  0  0  0  0  0  0  0  0  0  0  0
    2.8208   -6.9373    6.7078 N   0  0  0  0  0  0  0  0  0  0  0  0
    3.5276   -8.5669    8.3763 C   0  0  0  0  0  0  0  0  0  0  0  0
    4.1067   -9.6161    7.5824 O   0  0  0  0  0  0  0  0  0  0  0  0
    4.7447   -9.2015    8.8045 O   0  0  0  0  0  0  0  0  0  0  0  0
    6.1341   -5.8866    9.6183 O   0  0  0  0  0  0  0  0  0  0  0  0
    1.2665   -4.4673    2.9438 C   0  0  0  0  0  0  0  0  0  0  0  0
    1.9865   -4.8086    1.8546 N   0  0  0  0  0  0  0  0  0  0  0  0
    1.3761   -4.8795    0.7153 N   0  0  0  0  0  0  0  0  0  0  0  0
    0.0826   -4.6440    0.5980 N   0  0  0  0  0  0  0  0  0  0  0  0
   -0.6605   -4.3115    1.6525 C   0  0  0  0  0  0  0  0  0  0  0  0
   -0.0922   -4.2043    2.9111 C   0  0  0  0  0  0  0  0  0  0  0  0
   -0.8464   -3.8764    3.9930 N   0  0  0  0  0  0  0  0  0  0  0  0
   -2.1647   -3.6544    3.7925 C   0  0  0  0  0  0  0  0  0  0  0  0
   -2.7502   -3.7566    2.5242 C   0  0  0  0  0  0  0  0  0  0  0  0
   -1.9810   -4.0869    1.4831 N   0  0  0  0  0  0  0  0  0  0  0  0
   -4.0662   -3.5291    2.3171 N   0  0  0  0  0  0  0  0  0  0  0  0
   -4.9094   -3.1615    3.3383 C   0  0  0  0  0  0  0  0  0  0  0  0
   -4.3793   -3.0401    4.6227 C   0  0  0  0  0  0  0  0  0  0  0  0
   -3.0207   -3.2980    4.8230 C   0  0  0  0  0  0  0  0  0  0  0  0
   -2.5310   -3.1775    6.1085 O   0  0  0  0  0  0  0  0  0  0  0  0
   -5.0334   -2.6865    5.7733 O   0  0  0  0  0  0  0  0  0  0  0  0
   -6.3643   -2.9174    2.9366 C   0  0  1  0  0  0  0  0  0  0  0  0
   -6.6152   -2.4320    1.5947 O   0  0  0  0  0  0  0  0  0  0  0  0
   -7.3406   -3.8750    3.3939 O   0  0  0  0  0  0  0  0  0  0  0  0
   -7.4337   -2.6333    3.8878 C   0  0  0  0  0  0  0  0  0  0  0  0
   -7.4226   -2.2363    5.0368 O   0  0  0  0  0  0  0  0  0  0  0  0
    3.1203    0.1872    3.4663 C   0  0  0  0  0  0  0  0  0  0  0  0
    2.4453    0.2030    2.4477 O   0  0  0  0  0  0  0  0  0  0  0  0
    3.8903    1.4078    3.9062 C   0  0  0  0  0  0  0  0  0  0  0  0
    3.5378    2.5183    3.5384 O   0  0  0  0  0  0  0  0  0  0  0  0
    5.0572    1.2541    4.8617 C   0  0  0  0  0  0  0  0  0  0  0  0
    5.6746    2.2169    5.2874 O   0  0  0  0  0  0  0  0  0  0  0  0
  1  2  1  0  0  0  0
  2  3  2  0  0  0  0
  3  4  1  0  0  0  0
  3 51  1  0  0  0  0
  4  5  1  0  0  0  0
  5  6  1  6  0  0  0
  5 47  1  0  0  0  0
  6  7  1  0  0  0  0
  7  8  2  0  0  0  0
  7 12  1  0  0  0  0
  8  9  1  0  0  0  0
  8 26  1  0  0  0  0
  9 10  1  0  0  0  0
 10 11  2  0  0  0  0
 10 21  1  0  0  0  0
 11 12  1  0  0  0  0
 11 13  1  0  0  0  0
 13 14  1  0  0  0  0
 13 19  1  0  0  0  0
 14 15  1  0  0  0  0
 15 16  2  0  0  0  0
 15 17  1  0  0  0  0
 17 18  1  0  0  0  0
 18 19  1  0  0  0  0
 18 25  1  0  0  0  0
 19 20  2  0  0  0  0
 20 21  1  0  0  0  0
 20 22  1  0  0  0  0
 22 23  1  0  0  0  0
 22 24  1  0  0  0  0
 23 24  1  0  0  0  0
 26 27  2  0  0  0  0
 26 31  1  0  0  0  0
 27 28  1  0  0  0  0
 28 29  2  0  0  0  0
 29 30  1  0  0  0  0
 30 31  2  0  0  0  0
 30 35  1  0  0  0  0
 31 32  1  0  0  0  0
 32 33  2  0  0  0  0
 33 34  1  0  0  0  0
 33 39  1  0  0  0  0
 34 35  2  0  0  0  0
 34 36  1  0  0  0  0
 36 37  2  0  0  0  0
 37 38  1  0  0  0  0
 38 39  2  0  0  0  0
 38 41  1  0  0  0  0
 39 40  1  0  0  0  0
 42 37  1  1  0  0  0
 42 43  1  0  0  0  0
 42 44  1  0  0  0  0
 42 45  1  0  0  0  0
 44 45  1  0  0  0  0
 45 46  2  0  0  0  0
 47 48  2  0  0  0  0
 47 49  1  0  0  0  0
 49 50  2  0  0  0  0
 49 51  1  0  0  0  0
 51 52  2  0  0  0  0
M  END
$$$$