
 OpenBabel10232017193D

 88102  0  0  1  0  0  0  0  0999 V2000
    5.1503   -0.4589   -1.1821 O   0  0  0  0  0  0  0  0  0  0  0  0
    4.1593    0.5895   -1.2597 C   0  0  3  0  0  0  0  0  0  0  0  0
    3.2619    0.6472   -0.0047 C   0  0  3  0  0  0  0  0  0  0  0  0
    2.5063   -0.5726    0.1451 O   0  0  0  0  0  0  0  0  0  0  0  0
    2.0933   -1.2553   -0.9619 C   0  0  0  0  0  0  0  0  0  0  0  0
    2.3398   -0.8237   -2.2576 C   0  0  0  0  0  0  0  0  0  0  0  0
    3.2987    0.3068   -2.5029 C   0  0  3  0  0  0  0  0  0  0  0  0
    4.1508   -0.0725   -3.6100 O   0  0  0  0  0  0  0  0  0  0  0  0
    1.7053   -1.4977   -3.3079 C   0  0  0  0  0  0  0  0  0  0  0  0
    0.9731   -2.6993   -3.1358 C   0  0  0  0  0  0  0  0  0  0  0  0
    0.9417   -3.2723   -1.8449 C   0  0  0  0  0  0  0  0  0  0  0  0
    1.4275   -2.4714   -0.7751 C   0  0  0  0  0  0  0  0  0  0  0  0
    1.2658   -2.9031    0.4900 F   0  0  0  0  0  0  0  0  0  0  0  0
    0.4355   -4.5871   -1.7599 C   0  0  0  0  0  0  0  0  0  0  0  0
    0.3304   -5.4479   -0.2636 Cl  0  0  0  0  0  0  0  0  0  0  0  0
    0.0283   -5.3189   -2.9032 C   0  0  0  0  0  0  0  0  0  0  0  0
   -0.1071   -4.7355   -4.1738 C   0  0  0  0  0  0  0  0  0  0  0  0
    0.2943   -3.3724   -4.1982 C   0  0  0  0  0  0  0  0  0  0  0  0
   -0.2611   -2.3258   -5.4736 Cl  0  0  0  0  0  0  0  0  0  0  0  0
   -0.6182   -5.5442   -5.3742 C   0  0  0  0  0  0  0  0  0  0  0  0
   -0.1683   -5.2558   -6.6976 C   0  0  0  0  0  0  0  0  0  0  0  0
   -0.7396   -5.8124   -7.9349 C   0  0  0  0  0  0  0  0  0  0  0  0
   -0.7009   -5.4246   -9.4473 C   0  0  0  0  0  0  0  0  0  0  0  0
   -1.4352   -6.1973  -10.3636 C   0  0  0  0  0  0  0  0  0  0  0  0
   -1.8726   -5.6844  -11.6122 N   0  0  0  0  0  0  0  0  0  0  0  0
   -1.9609   -7.3888   -9.8919 C   0  0  0  0  0  0  0  0  0  0  0  0
   -1.9265   -7.7716   -8.6160 N   0  0  0  0  0  0  0  0  0  0  0  0
   -1.4669   -6.9897   -7.6427 N   0  3  0  0  0  0  0  0  0  0  0  0
   -1.7566   -7.4041   -6.3563 N   0  3  0  0  0  0  0  0  0  0  0  0
   -1.5367   -6.6174   -5.2682 C   0  0  0  0  0  0  0  0  0  0  0  0
   -2.3265   -6.9331   -4.0193 C   0  0  0  0  0  0  0  0  0  0  0  0
   -2.4323   -8.9849   -6.1398 Cl  0  0  0  0  0  0  0  0  0  0  0  0
    0.0633   -4.1492  -10.1316 N   0  3  0  0  0  0  0  0  0  0  0  0
    0.5599   -4.1407  -11.4671 N   0  3  0  0  0  0  0  0  0  0  0  0
    0.9203   -5.6053  -12.3163 Cl  0  0  0  0  0  0  0  0  0  0  0  0
    1.0732   -2.9889  -12.0709 C   0  0  0  0  0  0  0  0  0  0  0  0
    1.3395   -1.7708  -11.3828 C   0  0  0  0  0  0  0  0  0  0  0  0
    0.9789   -1.8012  -10.0459 C   0  0  0  0  0  0  0  0  0  0  0  0
    0.2506   -2.9480   -9.4691 C   0  0  0  0  0  0  0  0  0  0  0  0
   -0.3041   -2.8010   -8.2085 N   0  0  0  0  0  0  0  0  0  0  0  0
    1.3276   -0.7434   -9.3056 N   0  0  0  0  0  0  0  0  0  0  0  0
    2.0359    0.3322   -9.7245 N   0  3  0  0  0  0  0  0  0  0  0  0
    2.3618    0.5060  -11.0517 C   0  0  0  0  0  0  0  0  0  0  0  0
    1.9533   -0.5688  -11.8906 N   0  3  0  0  0  0  0  0  0  0  0  0
    2.1340   -0.4265  -13.2464 N   0  0  0  0  0  0  0  0  0  0  0  0
    2.6820    0.6967  -13.7847 N   0  3  0  0  0  0  0  0  0  0  0  0
    2.7712    0.8648  -15.2801 C   0  0  0  0  0  0  0  0  0  0  0  0
    3.1532    1.6649  -12.9868 C   0  0  0  0  0  0  0  0  0  0  0  0
    3.0146    1.5701  -11.6461 N   0  3  0  0  0  0  0  0  0  0  0  0
    3.7406    2.8682  -10.7867 Cl  0  0  0  0  0  0  0  0  0  0  0  0
    2.4213    1.4178   -8.4567 Cl  0  0  0  0  0  0  0  0  0  0  0  0
    2.3690    1.9432    0.0795 C   0  0  3  0  0  0  0  0  0  0  0  0
    3.2913    3.1912    0.1109 C   0  0  0  0  0  0  0  0  0  0  0  0
    2.5846    4.5293    0.3056 C   0  0  3  0  0  0  0  0  0  0  0  0
    1.5641    5.0487   -1.1561 P   0  0  0  0  0  0  0  0  0  0  0  0
    1.5845    4.5003    1.4193 C   0  0  0  0  0  0  0  0  0  0  0  0
    0.9728    3.3167    1.8204 C   0  0  0  0  0  0  0  0  0  0  0  0
    1.3989    1.9412    1.3071 C   0  0  3  0  0  0  0  0  0  0  0  0
    0.1493    1.0462    1.0714 C   0  0  3  0  0  0  0  0  0  0  0  0
   -0.3000    1.2124   -0.2136 F   0  0  0  0  0  0  0  0  0  0  0  0
   -1.0310    1.2789    2.0259 C   0  0  0  0  0  0  0  0  0  0  0  0
   -0.5895    2.0422    3.2754 C   0  0  3  0  0  0  0  0  0  0  0  0
   -0.0442    3.3785    2.8010 C   0  0  0  0  0  0  0  0  0  0  0  0
   -0.5280    4.6199    3.3036 C   0  0  0  0  0  0  0  0  0  0  0  0
    0.2455    5.7944    3.0805 C   0  0  0  0  0  0  0  0  0  0  0  0
    1.2793    5.6874    2.1191 C   0  0  0  0  0  0  0  0  0  0  0  0
    0.0501    7.1122    3.7809 C   0  0  0  0  0  0  0  0  0  0  0  0
    0.3556    8.3427    3.1564 C   0  0  0  0  0  0  0  0  0  0  0  0
    0.2735    9.5842    3.8318 C   0  0  0  0  0  0  0  0  0  0  0  0
    1.0521   10.7856    3.2947 C   0  0  3  0  0  0  0  0  0  0  0  0
    2.5451   10.5042    3.5936 C   0  0  0  0  0  0  0  0  0  0  0  0
    3.4721   11.6560    3.2395 C   0  0  0  0  0  0  0  0  0  0  0  0
    3.0424   12.9591    3.9190 C   0  0  3  0  0  0  0  0  0  0  0  0
    1.5895   13.2953    3.5043 C   0  0  3  0  0  0  0  0  0  0  0  0
    0.5982   12.1500    3.8800 C   0  0  3  0  0  0  0  0  0  0  0  0
    0.3525   12.0401    5.3985 C   0  0  0  0  0  0  0  0  0  0  0  0
   -0.6703   10.9529    5.7500 C   0  0  3  0  0  0  0  0  0  0  0  0
   -0.3258    9.6367    5.0949 C   0  0  0  0  0  0  0  0  0  0  0  0
   -0.6012    8.4355    5.7476 C   0  0  0  0  0  0  0  0  0  0  0  0
   -0.3311    7.2136    5.1282 C   0  0  0  0  0  0  0  0  0  0  0  0
   -0.3917    6.1221    5.9048 F   0  0  0  0  0  0  0  0  0  0  0  0
   -2.0966   11.3675    5.3605 C   0  0  0  0  0  0  0  0  0  0  0  0
    1.1274   14.6523    4.0492 C   0  0  0  0  0  0  0  0  0  0  0  0
    4.0483   14.0629    3.5805 C   0  0  0  0  0  0  0  0  0  0  0  0
   -1.8897    4.6352    4.0056 C   0  0  3  0  0  0  0  0  0  0  0  0
   -2.6300    3.2890    4.0013 C   0  0  0  0  0  0  0  0  0  0  0  0
   -1.6752    2.1630    4.3408 C   0  0  0  0  0  0  0  0  0  0  0  0
   -2.9859    5.8143    3.2012 Cl  0  0  0  0  0  0  0  0  0  0  0  0
  1  2  1  0  0  0  0
  2  3  1  0  0  0  0
  2  7  1  0  0  0  0
  3  4  1  0  0  0  0
  3 52  1  0  0  0  0
  4  5  1  0  0  0  0
  5  6  2  0  0  0  0
  5 12  1  0  0  0  0
  6  7  1  0  0  0  0
  6  9  1  0  0  0  0
  7  8  1  0  0  0  0
  9 10  2  0  0  0  0
 10 11  1  0  0  0  0
 10 18  1  0  0  0  0
 11 12  2  0  0  0  0
 11 14  1  0  0  0  0
 12 13  1  0  0  0  0
 14 15  1  0  0  0  0
 14 16  2  0  0  0  0
 16 17  1  0  0  0  0
 17 18  2  0  0  0  0
 17 20  1  0  0  0  0
 18 19  1  0  0  0  0
 20 21  2  0  0  0  0
 20 30  1  0  0  0  0
 21 22  1  0  0  0  0
 22 23  2  0  0  0  0
 22 28  1  0  0  0  0
 23 24  1  0  0  0  0
 23 33  1  0  0  0  0
 24 25  1  0  0  0  0
 24 26  2  0  0  0  0
 26 27  1  0  0  0  0
 27 28  2  0  0  0  0
 28 29  1  0  0  0  0
 29 30  2  0  0  0  0
 29 32  1  0  0  0  0
 30 31  1  0  0  0  0
 33 34  2  0  0  0  0
 33 39  1  0  0  0  0
 34 35  1  0  0  0  0
 34 36  1  0  0  0  0
 36 37  2  0  0  0  0
 37 38  1  0  0  0  0
 37 44  1  0  0  0  0
 38 39  2  0  0  0  0
 38 41  1  0  0  0  0
 39 40  1  0  0  0  0
 41 42  2  0  0  0  0
 42 43  1  0  0  0  0
 42 51  1  0  0  0  0
 43 44  2  0  0  0  0
 43 49  1  0  0  0  0
 44 45  1  0  0  0  0
 45 46  2  0  0  0  0
 46 47  1  0  0  0  0
 46 48  1  0  0  0  0
 48 49  2  0  0  0  0
 49 50  1  0  0  0  0
 52 53  1  0  0  0  0
 52 58  1  0  0  0  0
 53 54  1  0  0  0  0
 54 55  1  0  0  0  0
 54 56  1  0  0  0  0
 56 57  2  0  0  0  0
 56 66  1  0  0  0  0
 57 58  1  0  0  0  0
 57 63  1  0  0  0  0
 58 59  1  0  0  0  0
 59 60  1  0  0  0  0
 59 61  1  0  0  0  0
 61 62  1  0  0  0  0
 62 63  1  0  0  0  0
 62 87  1  0  0  0  0
 63 64  2  0  0  0  0
 64 65  1  0  0  0  0
 64 85  1  0  0  0  0
 65 66  2  0  0  0  0
 65 67  1  0  0  0  0
 67 68  2  0  0  0  0
 67 80  1  0  0  0  0
 68 69  1  0  0  0  0
 69 70  1  0  0  0  0
 69 78  2  0  0  0  0
 70 71  1  0  0  0  0
 70 75  1  0  0  0  0
 71 72  1  0  0  0  0
 72 73  1  0  0  0  0
 73 74  1  0  0  0  0
 73 84  1  0  0  0  0
 74 75  1  0  0  0  0
 74 83  1  0  0  0  0
 75 76  1  0  0  0  0
 76 77  1  0  0  0  0
 77 78  1  0  0  0  0
 77 82  1  0  0  0  0
 78 79  1  0  0  0  0
 79 80  2  0  0  0  0
 80 81  1  0  0  0  0
 85 86  1  0  0  0  0
 85 88  1  0  0  0  0
 86 87  1  0  0  0  0
M  CHG  8  28   1  29   1  33   1  34   1  42   1  44   1  46   1  49   1
M  END
$$$$