
 OpenBabel11242013593D

 94109  0  0  1  0  0  0  0  0999 V2000
    5.5188    4.2818    1.7548 F   0  0  0  0  0  0  0  0  0  0  0  0
    5.8911    5.3809    1.0460 C   0  0  3  0  0  0  0  0  0  0  0  0
    7.0271    6.1037    1.7981 C   0  0  0  0  0  0  0  0  0  0  0  0
    6.7550    7.6164    1.9313 C   0  0  3  0  0  0  0  0  0  0  0  0
    7.9291    8.3641    2.5587 C   0  0  0  0  0  0  0  0  0  0  0  0
    7.7882    8.4790    4.0635 C   0  0  0  0  0  0  0  0  0  0  0  0
    6.4610    9.1457    4.4173 C   0  0  3  0  0  0  0  0  0  0  0  0
    5.2453    8.4165    3.8807 C   0  0  0  0  0  0  0  0  0  0  0  0
    5.4112    7.7450    2.6418 C   0  0  0  0  0  0  0  0  0  0  0  0
    4.3550    7.0108    2.0658 C   0  0  0  0  0  0  0  0  0  0  0  0
    4.6537    6.2715    0.7773 C   0  0  3  0  0  0  0  0  0  0  0  0
    3.4770    5.5163    0.0900 C   0  0  3  0  0  0  0  0  0  0  0  0
    2.1052    5.9242    0.6837 C   0  0  0  0  0  0  0  0  0  0  0  0
    2.0957    5.9668    2.2109 C   0  0  0  0  0  0  0  0  0  0  0  0
    3.1388    6.9195    2.7241 C   0  0  0  0  0  0  0  0  0  0  0  0
    2.9608    7.6179    3.9343 C   0  0  0  0  0  0  0  0  0  0  0  0
    3.9827    8.3849    4.5562 C   0  0  0  0  0  0  0  0  0  0  0  0
    3.7116    9.0229    5.9020 C   0  0  0  0  0  0  0  0  0  0  0  0
    4.3164   10.2261    6.3129 C   0  0  0  0  0  0  0  0  0  0  0  0
    4.2857   10.6989    7.6470 C   0  0  0  0  0  0  0  0  0  0  0  0
    5.3489   11.7054    8.0846 C   0  0  3  0  0  0  0  0  0  0  0  0
    6.6968   10.9494    8.1183 C   0  0  0  0  0  0  0  0  0  0  0  0
    7.8557   11.8091    8.5841 C   0  0  0  0  0  0  0  0  0  0  0  0
    7.5906   12.4080    9.9654 C   0  0  3  0  0  0  0  0  0  0  0  0
    6.2767   13.2276    9.9387 C   0  0  3  0  0  0  0  0  0  0  0  0
    5.0526   12.3944    9.4399 C   0  0  3  0  0  0  0  0  0  0  0  0
    4.5371   11.3622   10.4620 C   0  0  0  0  0  0  0  0  0  0  0  0
    3.2685   10.6377    9.9714 C   0  0  3  0  0  0  0  0  0  0  0  0
    3.4304   10.0932    8.5690 C   0  0  0  0  0  0  0  0  0  0  0  0
    2.7134    8.9643    8.1583 C   0  0  0  0  0  0  0  0  0  0  0  0
    2.8911    8.4229    6.8765 C   0  0  0  0  0  0  0  0  0  0  0  0
    2.2559    7.2681    6.6202 F   0  0  0  0  0  0  0  0  0  0  0  0
    2.0372   11.5518   10.0420 C   0  0  0  0  0  0  0  0  0  0  0  0
    5.9991   13.9040   11.2863 C   0  0  0  0  0  0  0  0  0  0  0  0
    8.8125   13.2338   10.3824 C   0  0  0  0  0  0  0  0  0  0  0  0
    3.4494    5.7644   -1.4673 C   0  0  3  0  0  0  0  0  0  0  0  0
    3.2973    7.1850   -1.6853 O   0  0  0  0  0  0  0  0  0  0  0  0
    3.5974    7.7193   -2.8989 C   0  0  0  0  0  0  0  0  0  0  0  0
    4.2730    7.0133   -3.8897 C   0  0  0  0  0  0  0  0  0  0  0  0
    4.5947    5.5738   -3.7022 C   0  0  3  0  0  0  0  0  0  0  0  0
    4.6776    5.1892   -2.2154 C   0  0  3  0  0  0  0  0  0  0  0  0
    4.7264    3.7631   -2.0852 O   0  0  0  0  0  0  0  0  0  0  0  0
    5.7682    3.0949   -2.6706 C   0  0  0  0  0  0  0  0  0  0  0  0
    5.4667    1.7984   -3.0995 C   0  0  0  0  0  0  0  0  0  0  0  0
    6.4209    1.0363   -3.7751 C   0  0  0  0  0  0  0  0  0  0  0  0
    7.6803    1.5732   -4.0059 C   0  0  0  0  0  0  0  0  0  0  0  0
    8.0105    2.8445   -3.5475 C   0  0  0  0  0  0  0  0  0  0  0  0
    7.0553    3.6053   -2.8662 C   0  0  0  0  0  0  0  0  0  0  0  0
    8.5767    0.8805   -4.7200 F   0  0  0  0  0  0  0  0  0  0  0  0
    3.6732    4.8147   -4.4963 O   0  0  0  0  0  0  0  0  0  0  0  0
    4.6112    7.6608   -5.0842 C   0  0  0  0  0  0  0  0  0  0  0  0
    4.2669    8.9904   -5.3598 C   0  0  0  0  0  0  0  0  0  0  0  0
    3.4919    9.6730   -4.3855 C   0  0  0  0  0  0  0  0  0  0  0  0
    3.2242    9.0273   -3.1619 C   0  0  0  0  0  0  0  0  0  0  0  0
    2.5305    9.7050   -2.2200 F   0  0  0  0  0  0  0  0  0  0  0  0
    3.0162   10.9422   -4.7212 C   0  0  0  0  0  0  0  0  0  0  0  0
    2.2307   11.6959   -3.8787 O   0  0  0  0  0  0  0  0  0  0  0  0
    3.2508   11.5367   -5.9635 C   0  0  0  0  0  0  0  0  0  0  0  0
    4.0817   10.9369   -6.9262 C   0  0  0  0  0  0  0  0  0  0  0  0
    4.6001    9.6734   -6.5589 C   0  0  0  0  0  0  0  0  0  0  0  0
    5.5664    9.0402   -7.3557 O   0  0  0  0  0  0  0  0  0  0  0  0
    4.3691   11.6323   -8.2279 C   0  0  0  0  0  0  0  0  0  0  0  0
    4.6035   10.8556   -9.3838 C   0  0  0  0  0  0  0  0  0  0  0  0
    5.1199   11.3970  -10.5963 C   0  0  0  0  0  0  0  0  0  0  0  0
    5.7137   10.6777  -11.7730 C   0  0  0  0  0  0  0  0  0  0  0  0
    6.0662   11.4219  -12.9084 C   0  0  0  0  0  0  0  0  0  0  0  0
    6.8232   10.8789  -13.9865 N   0  0  0  0  0  0  0  0  0  0  0  0
    5.8454   12.7989  -12.8399 C   0  0  0  0  0  0  0  0  0  0  0  0
    5.3435   13.4537  -11.7765 N   0  0  0  0  0  0  0  0  0  0  0  0
    5.0274   12.7978  -10.6653 N   0  3  0  0  0  0  0  0  0  0  0  0
    4.6487   13.5665   -9.5948 N   0  3  0  0  0  0  0  0  0  0  0  0
    4.4344   13.0304   -8.3746 C   0  0  0  0  0  0  0  0  0  0  0  0
    4.3990   13.8036   -7.2420 O   0  0  0  0  0  0  0  0  0  0  0  0
    4.5655   14.9663   -9.6394 O   0  0  0  0  0  0  0  0  0  0  0  0
    6.0303    9.1080  -11.8212 N   0  3  0  0  0  0  0  0  0  0  0  0
    5.9947    8.3301  -12.9878 N   0  3  0  0  0  0  0  0  0  0  0  0
    5.5093    8.7848  -14.2107 O   0  0  0  0  0  0  0  0  0  0  0  0
    6.2473    6.9709  -13.0015 C   0  0  0  0  0  0  0  0  0  0  0  0
    6.4963    6.1986  -11.8403 C   0  0  0  0  0  0  0  0  0  0  0  0
    6.5254    6.9321  -10.6490 C   0  0  0  0  0  0  0  0  0  0  0  0
    6.4328    8.4126  -10.6871 C   0  0  0  0  0  0  0  0  0  0  0  0
    6.9525    9.1664   -9.6307 N   0  0  0  0  0  0  0  0  0  0  0  0
    6.6395    6.2284   -9.4980 N   0  0  0  0  0  0  0  0  0  0  0  0
    6.6869    4.8807   -9.4461 N   0  3  0  0  0  0  0  0  0  0  0  0
    6.7880    4.0980  -10.5694 C   0  0  0  0  0  0  0  0  0  0  0  0
    6.7239    4.7879  -11.7813 N   0  3  0  0  0  0  0  0  0  0  0  0
    6.9280    4.0631  -12.9313 N   0  0  0  0  0  0  0  0  0  0  0  0
    7.1897    2.7203  -12.9007 N   0  3  0  0  0  0  0  0  0  0  0  0
    7.5300    1.9906  -14.1727 C   0  0  0  0  0  0  0  0  0  0  0  0
    7.1680    2.0490  -11.7341 C   0  0  0  0  0  0  0  0  0  0  0  0
    6.9586    2.7334  -10.5921 N   0  3  0  0  0  0  0  0  0  0  0  0
    6.9422    2.0377   -9.3712 O   0  0  0  0  0  0  0  0  0  0  0  0
    6.6597    4.2499   -8.2065 O   0  0  0  0  0  0  0  0  0  0  0  0
    6.4718   10.4642    3.8549 O   0  0  0  0  0  0  0  0  0  0  0  0
  1  2  1  0  0  0  0
  2  3  1  0  0  0  0
  2 11  1  0  0  0  0
  3  4  1  0  0  0  0
  4  5  1  0  0  0  0
  4  9  1  0  0  0  0
  5  6  1  0  0  0  0
  6  7  1  0  0  0  0
  7  8  1  0  0  0  0
  7 94  1  0  0  0  0
  8  9  2  0  0  0  0
  8 17  1  0  0  0  0
  9 10  1  0  0  0  0
 10 11  1  0  0  0  0
 10 15  2  0  0  0  0
 11 12  1  0  0  0  0
 12 13  1  0  0  0  0
 12 36  1  0  0  0  0
 13 14  1  0  0  0  0
 14 15  1  0  0  0  0
 15 16  1  0  0  0  0
 16 17  2  0  0  0  0
 17 18  1  0  0  0  0
 18 19  2  0  0  0  0
 18 31  1  0  0  0  0
 19 20  1  0  0  0  0
 20 21  1  0  0  0  0
 20 29  2  0  0  0  0
 21 22  1  0  0  0  0
 21 26  1  0  0  0  0
 22 23  1  0  0  0  0
 23 24  1  0  0  0  0
 24 25  1  0  0  0  0
 24 35  1  0  0  0  0
 25 26  1  0  0  0  0
 25 34  1  0  0  0  0
 26 27  1  0  0  0  0
 27 28  1  0  0  0  0
 28 29  1  0  0  0  0
 28 33  1  0  0  0  0
 29 30  1  0  0  0  0
 30 31  2  0  0  0  0
 31 32  1  0  0  0  0
 36 37  1  0  0  0  0
 36 41  1  0  0  0  0
 37 38  1  0  0  0  0
 38 39  2  0  0  0  0
 38 54  1  0  0  0  0
 39 40  1  0  0  0  0
 39 51  1  0  0  0  0
 40 41  1  0  0  0  0
 40 50  1  0  0  0  0
 41 42  1  0  0  0  0
 42 43  1  0  0  0  0
 43 44  2  0  0  0  0
 43 48  1  0  0  0  0
 44 45  1  0  0  0  0
 45 46  2  0  0  0  0
 46 47  1  0  0  0  0
 46 49  1  0  0  0  0
 47 48  2  0  0  0  0
 51 52  2  0  0  0  0
 52 53  1  0  0  0  0
 52 60  1  0  0  0  0
 53 54  2  0  0  0  0
 53 56  1  0  0  0  0
 54 55  1  0  0  0  0
 56 57  1  0  0  0  0
 56 58  2  0  0  0  0
 58 59  1  0  0  0  0
 59 60  2  0  0  0  0
 59 62  1  0  0  0  0
 60 61  1  0  0  0  0
 62 63  2  0  0  0  0
 62 72  1  0  0  0  0
 63 64  1  0  0  0  0
 64 65  2  0  0  0  0
 64 70  1  0  0  0  0
 65 66  1  0  0  0  0
 65 75  1  0  0  0  0
 66 67  1  0  0  0  0
 66 68  2  0  0  0  0
 68 69  1  0  0  0  0
 69 70  2  0  0  0  0
 70 71  1  0  0  0  0
 71 72  2  0  0  0  0
 71 74  1  0  0  0  0
 72 73  1  0  0  0  0
 75 76  2  0  0  0  0
 75 81  1  0  0  0  0
 76 77  1  0  0  0  0
 76 78  1  0  0  0  0
 78 79  2  0  0  0  0
 79 80  1  0  0  0  0
 79 86  1  0  0  0  0
 80 81  2  0  0  0  0
 80 83  1  0  0  0  0
 81 82  1  0  0  0  0
 83 84  2  0  0  0  0
 84 85  1  0  0  0  0
 84 93  1  0  0  0  0
 85 86  2  0  0  0  0
 85 91  1  0  0  0  0
 86 87  1  0  0  0  0
 87 88  2  0  0  0  0
 88 89  1  0  0  0  0
 88 90  1  0  0  0  0
 90 91  2  0  0  0  0
 91 92  1  0  0  0  0
M  CHG  8  70   1  71   1  75   1  76   1  84   1  86   1  88   1  91   1
M  END
$$$$