
 OpenBabel11212020473D

 54 62  0  0  1  0  0  0  0  0999 V2000
    0.6650    5.0601    0.4852 O   0  0  0  0  0  0  0  0  0  0  0  0
    1.7719    5.6930    0.9840 C   0  0  0  0  0  0  0  0  0  0  0  0
    2.4487    5.2604    2.0565 C   0  0  0  0  0  0  0  0  0  0  0  0
    2.0403    4.1846    2.8282 O   0  0  0  0  0  0  0  0  0  0  0  0
    3.0479    3.1939    2.9633 C   0  0  2  0  0  0  0  0  0  0  0  0
    2.5570    2.0652    3.7395 O   0  0  0  0  0  0  0  0  0  0  0  0
    2.5966    2.0564    5.1318 C   0  0  0  0  0  0  0  0  0  0  0  0
    2.6995    0.8858    5.8237 C   0  0  0  0  0  0  0  0  0  0  0  0
    2.8089    0.8878    7.2175 O   0  0  0  0  0  0  0  0  0  0  0  0
    3.0710    2.0598    7.9144 C   0  0  0  0  0  0  0  0  0  0  0  0
    2.8900    3.2576    7.3339 C   0  0  0  0  0  0  0  0  0  0  0  0
    2.4918    3.3746    5.8862 C   0  0  0  0  0  0  0  0  0  0  0  0
    3.0905    4.5417    8.0970 C   0  0  3  0  0  0  0  0  0  0  0  0
    1.8228    5.1676    8.1746 O   0  0  0  0  0  0  0  0  0  0  0  0
    1.6918    6.2865    8.9371 C   0  0  0  0  0  0  0  0  0  0  0  0
    0.7054    6.9976    8.8516 O   0  0  0  0  0  0  0  0  0  0  0  0
    2.7064    6.5511    9.7958 O   0  0  0  0  0  0  0  0  0  0  0  0
    3.6718    5.5903   10.2050 C   0  0  3  0  0  0  0  0  0  0  0  0
    3.5298    4.2960    9.4914 C   0  0  0  0  0  0  0  0  0  0  0  0
    3.7346    3.0603    9.9975 C   0  0  0  0  0  0  0  0  0  0  0  0
    3.4982    1.9392    9.2187 O   0  3  0  0  0  0  0  0  0  0  0  0
    4.1769    2.7917   11.3850 C   0  0  0  0  0  0  0  0  0  0  0  0
    3.2222    2.5762   12.4309 O   0  0  0  0  0  0  0  0  0  0  0  0
    4.0219    1.4782   11.9516 O   0  0  0  0  0  0  0  0  0  0  0  0
    4.9583    6.0629    9.8683 O   0  0  0  0  0  0  0  0  0  0  0  0
    2.6818   -0.4990    5.2282 C   0  0  0  0  0  0  0  0  0  0  0  0
    1.9076   -0.7217    4.0780 C   0  0  0  0  0  0  0  0  0  0  0  0
    1.8454   -1.9325    3.5024 N   0  3  0  0  0  0  0  0  0  0  0  0
    1.0790   -2.0852    2.4045 F   0  0  0  0  0  0  0  0  0  0  0  0
    2.4942   -3.0008    3.9840 C   0  0  0  0  0  0  0  0  0  0  0  0
    3.2362   -2.9025    5.1546 C   0  0  0  0  0  0  0  0  0  0  0  0
    3.3316   -1.6475    5.8118 C   0  0  0  0  0  0  0  0  0  0  0  0
    4.0517   -1.6717    7.0308 C   0  0  0  0  0  0  0  0  0  0  0  0
    4.5677   -2.8500    7.5954 C   0  0  0  0  0  0  0  0  0  0  0  0
    5.0573   -2.8196    8.9795 C   0  0  0  0  0  0  0  0  0  0  0  0
    4.9444   -1.7922    9.6385 O   0  0  0  0  0  0  0  0  0  0  0  0
    5.5777   -4.1262    9.5452 C   0  0  0  0  0  0  0  0  0  0  0  0
    5.6990   -4.2705   10.7511 O   0  0  0  0  0  0  0  0  0  0  0  0
    5.9347   -5.1609    8.4959 C   0  0  1  0  0  0  0  0  0  0  0  0
    5.0287   -5.2239    7.3809 O   0  0  0  0  0  0  0  0  0  0  0  0
    4.5167   -4.0494    6.9158 C   0  0  0  0  0  0  0  0  0  0  0  0
    3.8517   -4.0556    5.6909 C   0  0  0  0  0  0  0  0  0  0  0  0
    3.7568   -5.2064    5.0069 F   0  0  0  0  0  0  0  0  0  0  0  0
    7.3332   -4.9518    8.0147 C   0  0  1  0  0  0  0  0  0  0  0  0
    7.6239   -3.6566    7.4262 O   0  0  0  0  0  0  0  0  0  0  0  0
    8.3500   -5.4967    8.8458 O   0  0  0  0  0  0  0  0  0  0  0  0
    8.2319   -6.0379    7.6177 C   0  0  0  0  0  0  0  0  0  0  0  0
    9.0193   -6.0512    6.6927 O   0  0  0  0  0  0  0  0  0  0  0  0
    4.4248    3.6848    3.4194 C   0  0  0  0  0  0  0  0  0  0  0  0
    5.2312    2.9857    4.0235 O   0  0  0  0  0  0  0  0  0  0  0  0
    4.6906    5.1495    3.1672 C   0  0  0  0  0  0  0  0  0  0  0  0
    5.7043    5.6504    3.6246 O   0  0  0  0  0  0  0  0  0  0  0  0
    3.6877    5.9951    2.4121 C   0  0  0  0  0  0  0  0  0  0  0  0
    3.9050    7.1578    2.1267 O   0  0  0  0  0  0  0  0  0  0  0  0
  1  2  1  0  0  0  0
  2  3  2  0  0  0  0
  3  4  1  0  0  0  0
  3 53  1  0  0  0  0
  4  5  1  0  0  0  0
  5  6  1  1  0  0  0
  5 49  1  0  0  0  0
  6  7  1  0  0  0  0
  7  8  2  0  0  0  0
  7 12  1  0  0  0  0
  8  9  1  0  0  0  0
  8 26  1  0  0  0  0
  9 10  1  0  0  0  0
 10 11  2  0  0  0  0
 10 21  1  0  0  0  0
 11 12  1  0  0  0  0
 11 13  1  0  0  0  0
 13 14  1  0  0  0  0
 13 19  1  0  0  0  0
 14 15  1  0  0  0  0
 15 16  2  0  0  0  0
 15 17  1  0  0  0  0
 17 18  1  0  0  0  0
 18 19  1  0  0  0  0
 18 25  1  0  0  0  0
 19 20  2  0  0  0  0
 20 21  1  0  0  0  0
 20 22  1  0  0  0  0
 22 23  1  0  0  0  0
 22 24  1  0  0  0  0
 23 24  1  0  0  0  0
 26 27  2  0  0  0  0
 26 32  1  0  0  0  0
 27 28  1  0  0  0  0
 28 29  1  0  0  0  0
 28 30  2  0  0  0  0
 30 31  1  0  0  0  0
 31 32  2  0  0  0  0
 31 42  1  0  0  0  0
 32 33  1  0  0  0  0
 33 34  2  0  0  0  0
 34 35  1  0  0  0  0
 34 41  1  0  0  0  0
 35 36  2  0  0  0  0
 35 37  1  0  0  0  0
 37 38  2  0  0  0  0
 39 37  1  1  0  0  0
 39 40  1  0  0  0  0
 39 44  1  0  0  0  0
 40 41  1  0  0  0  0
 41 42  2  0  0  0  0
 42 43  1  0  0  0  0
 44 45  1  6  0  0  0
 44 46  1  0  0  0  0
 44 47  1  0  0  0  0
 46 47  1  0  0  0  0
 47 48  2  0  0  0  0
 49 50  2  0  0  0  0
 49 51  1  0  0  0  0
 51 52  2  0  0  0  0
 51 53  1  0  0  0  0
 53 54  2  0  0  0  0
M  CHG  2  21   1  28   1
M  END
$$$$