
 OpenBabel10112019383D

 52 60  0  0  1  0  0  0  0  0999 V2000
   11.5140   -4.0954    2.1052 N   0  0  0  0  0  0  0  0  0  0  0  0
   11.2458   -2.6873    2.3369 C   0  0  0  0  0  0  0  0  0  0  0  0
    9.9632   -2.5438    3.0886 C   0  0  0  0  0  0  0  0  0  0  0  0
    8.8885   -1.8656    2.6578 C   0  0  0  0  0  0  0  0  0  0  0  0
    8.9053   -1.2379    1.4252 O   0  0  0  0  0  0  0  0  0  0  0  0
    7.6282   -1.1897    0.7808 C   0  0  2  0  0  0  0  0  0  0  0  0
    7.7478   -0.6851   -0.5509 O   0  0  0  0  0  0  0  0  0  0  0  0
    8.5566   -1.4109   -1.4196 C   0  0  0  0  0  0  0  0  0  0  0  0
    9.1870   -0.8026   -2.4468 C   0  0  0  0  0  0  0  0  0  0  0  0
    9.9736   -1.4806   -3.3727 O   0  0  0  0  0  0  0  0  0  0  0  0
    9.9722   -2.8660   -3.3741 C   0  0  0  0  0  0  0  0  0  0  0  0
    9.3241   -3.5679   -2.4312 C   0  0  0  0  0  0  0  0  0  0  0  0
    8.6082   -2.9190   -1.2932 C   0  0  0  0  0  0  0  0  0  0  0  0
    9.2788   -5.0505   -2.5778 C   0  0  0  0  0  0  0  0  0  0  0  0
    8.6448   -5.7805   -1.7200 N   0  0  0  0  0  0  0  0  0  0  0  0
    8.5830   -7.1482   -1.9160 C   0  0  0  0  0  0  0  0  0  0  0  0
    7.9454   -7.8148   -1.1116 O   0  0  0  0  0  0  0  0  0  0  0  0
    9.1976   -7.7977   -2.9693 N   0  0  0  0  0  0  0  0  0  0  0  0
    9.8418   -7.0963   -3.8358 C   0  0  0  0  0  0  0  0  0  0  0  0
    9.9659   -5.6427   -3.7480 C   0  0  0  0  0  0  0  0  0  0  0  0
   10.6267   -4.8518   -4.6159 C   0  0  0  0  0  0  0  0  0  0  0  0
   10.6436   -3.4821   -4.3996 N   0  0  0  0  0  0  0  0  0  0  0  0
   11.3465   -5.3316   -5.8190 C   0  0  0  0  0  0  0  0  0  0  0  0
   10.6785   -5.4891   -7.0796 O   0  0  0  0  0  0  0  0  0  0  0  0
   11.6681   -4.4551   -6.9138 O   0  0  0  0  0  0  0  0  0  0  0  0
    8.9807    0.6144   -2.7874 C   0  0  0  0  0  0  0  0  0  0  0  0
    8.0087    0.7906   -3.7108 N   0  0  0  0  0  0  0  0  0  0  0  0
    7.7714    2.0477   -4.0843 C   0  0  0  0  0  0  0  0  0  0  0  0
    8.4240    3.1299   -3.6475 N   0  0  0  0  0  0  0  0  0  0  0  0
    9.3893    2.9372   -2.7456 C   0  0  0  0  0  0  0  0  0  0  0  0
    9.7323    1.6707   -2.2493 C   0  0  0  0  0  0  0  0  0  0  0  0
   10.7797    1.5593   -1.2992 C   0  0  0  0  0  0  0  0  0  0  0  0
   11.4642    2.7012   -0.8645 C   0  0  0  0  0  0  0  0  0  0  0  0
   11.1226    3.9473   -1.3593 C   0  0  0  0  0  0  0  0  0  0  0  0
   10.0917    4.0480   -2.2953 C   0  0  0  0  0  0  0  0  0  0  0  0
   11.7565    5.1107   -1.0484 O   0  0  0  0  0  0  0  0  0  0  0  0
   12.5382    5.1441    0.1434 C   0  0  2  0  0  0  0  0  0  0  0  0
   13.1900    3.8611    0.6039 C   0  0  0  0  0  0  0  0  0  0  0  0
   14.0887    3.8277    1.4352 O   0  0  0  0  0  0  0  0  0  0  0  0
   12.5658    2.5841    0.0921 C   0  0  0  0  0  0  0  0  0  0  0  0
   12.9527    1.4951    0.4884 O   0  0  0  0  0  0  0  0  0  0  0  0
   11.7587    5.8117    1.2401 C   0  0  1  0  0  0  0  0  0  0  0  0
   11.3195    7.1647    0.9616 O   0  0  0  0  0  0  0  0  0  0  0  0
   10.8100    4.9648    1.8874 O   0  0  0  0  0  0  0  0  0  0  0  0
   11.8035    5.4537    2.6578 C   0  0  0  0  0  0  0  0  0  0  0  0
   11.7269    6.1603    3.6446 O   0  0  0  0  0  0  0  0  0  0  0  0
    6.7302   -0.2994    1.6209 C   0  0  0  0  0  0  0  0  0  0  0  0
    6.1427    0.7058    1.2541 O   0  0  0  0  0  0  0  0  0  0  0  0
    6.6299   -0.7999    3.0417 C   0  0  0  0  0  0  0  0  0  0  0  0
    5.7101   -0.4449    3.7605 O   0  0  0  0  0  0  0  0  0  0  0  0
    7.6828   -1.7738    3.5423 C   0  0  0  0  0  0  0  0  0  0  0  0
    7.5182   -2.4312    4.5553 O   0  0  0  0  0  0  0  0  0  0  0  0
  1  2  1  0  0  0  0
  2  3  1  0  0  0  0
  3  4  2  0  0  0  0
  4  5  1  0  0  0  0
  4 51  1  0  0  0  0
  5  6  1  0  0  0  0
  6  7  1  6  0  0  0
  6 47  1  0  0  0  0
  7  8  1  0  0  0  0
  8  9  2  0  0  0  0
  8 13  1  0  0  0  0
  9 10  1  0  0  0  0
  9 26  1  0  0  0  0
 10 11  1  0  0  0  0
 11 12  2  0  0  0  0
 11 22  1  0  0  0  0
 12 13  1  0  0  0  0
 12 14  1  0  0  0  0
 14 15  2  0  0  0  0
 14 20  1  0  0  0  0
 15 16  1  0  0  0  0
 16 17  2  0  0  0  0
 16 18  1  0  0  0  0
 18 19  2  0  0  0  0
 19 20  1  0  0  0  0
 20 21  2  0  0  0  0
 21 22  1  0  0  0  0
 21 23  1  0  0  0  0
 23 24  1  0  0  0  0
 23 25  1  0  0  0  0
 24 25  1  0  0  0  0
 26 27  2  0  0  0  0
 26 31  1  0  0  0  0
 27 28  1  0  0  0  0
 28 29  2  0  0  0  0
 29 30  1  0  0  0  0
 30 31  2  0  0  0  0
 30 35  1  0  0  0  0
 31 32  1  0  0  0  0
 32 33  2  0  0  0  0
 33 34  1  0  0  0  0
 33 40  1  0  0  0  0
 34 35  2  0  0  0  0
 34 36  1  0  0  0  0
 37 36  1  6  0  0  0
 37 38  1  0  0  0  0
 37 42  1  0  0  0  0
 38 39  2  0  0  0  0
 38 40  1  0  0  0  0
 40 41  2  0  0  0  0
 42 43  1  6  0  0  0
 42 44  1  0  0  0  0
 42 45  1  0  0  0  0
 44 45  1  0  0  0  0
 45 46  2  0  0  0  0
 47 48  2  0  0  0  0
 47 49  1  0  0  0  0
 49 50  2  0  0  0  0
 49 51  1  0  0  0  0
 51 52  2  0  0  0  0
M  END
$$$$