
 OpenBabel11222023543D

 53 62  0  0  1  0  0  0  0  0999 V2000
  -16.1227   -8.3939    2.2921 O   0  0  0  0  0  0  0  0  0  0  0  0
  -16.5539   -7.2689    2.9507 C   0  0  0  0  0  0  0  0  0  0  0  0
  -15.7723   -6.2005    3.1446 C   0  0  0  0  0  0  0  0  0  0  0  0
  -14.4562   -6.1969    2.7136 O   0  0  0  0  0  0  0  0  0  0  0  0
  -14.0407   -4.9382    2.2153 C   0  0  2  0  0  0  0  0  0  0  0  0
  -12.6478   -4.9893    1.8453 O   0  0  0  0  0  0  0  0  0  0  0  0
  -12.2286   -5.6012    0.6829 C   0  0  0  0  0  0  0  0  0  0  0  0
  -10.9090   -5.6549    0.3879 C   0  0  0  0  0  0  0  0  0  0  0  0
  -10.4555   -6.3004   -0.7720 O   0  0  0  0  0  0  0  0  0  0  0  0
  -11.3174   -7.1250   -1.5023 C   0  0  0  0  0  0  0  0  0  0  0  0
  -12.6478   -7.0865   -1.2985 C   0  0  0  0  0  0  0  0  0  0  0  0
  -13.2557   -6.2173   -0.2364 C   0  0  0  0  0  0  0  0  0  0  0  0
  -13.5922   -7.9682   -2.0670 C   0  0  3  0  0  0  0  0  0  0  0  0
  -14.3976   -7.1525   -2.9211 N   0  0  0  0  0  0  0  0  0  0  0  0
  -15.1416   -7.6849   -3.9274 C   0  0  0  0  0  0  0  0  0  0  0  0
  -16.0649   -7.0551   -4.4200 O   0  0  0  0  0  0  0  0  0  0  0  0
  -14.7702   -8.9104   -4.3686 N   0  0  0  0  0  0  0  0  0  0  0  0
  -13.8369   -9.7855   -3.7146 C   0  0  0  0  0  0  0  0  0  0  0  0
  -12.8664   -8.9280   -2.9601 C   0  0  0  0  0  0  0  0  0  0  0  0
  -11.5225   -8.9161   -3.1034 C   0  0  0  0  0  0  0  0  0  0  0  0
  -10.7529   -7.9868   -2.4195 O   0  3  0  0  0  0  0  0  0  0  0  0
  -10.7789   -9.8174   -4.0146 C   0  0  0  0  0  0  0  0  0  0  0  0
  -10.4227   -9.4001   -5.3375 O   0  0  0  0  0  0  0  0  0  0  0  0
   -9.4011   -9.5514   -4.3333 O   0  0  0  0  0  0  0  0  0  0  0  0
   -9.8275   -5.0551    1.2583 C   0  0  0  0  0  0  0  0  0  0  0  0
  -10.0773   -3.8691    1.9587 C   0  0  0  0  0  0  0  0  0  0  0  0
   -9.1610   -3.3263    2.7677 N   0  3  0  0  0  0  0  0  0  0  0  0
   -9.4774   -2.2142    3.4605 F   0  0  0  0  0  0  0  0  0  0  0  0
   -7.9513   -3.8315    2.9112 N   0  0  0  0  0  0  0  0  0  0  0  0
   -7.6096   -4.9362    2.2451 C   0  0  0  0  0  0  0  0  0  0  0  0
   -8.5264   -5.6090    1.4096 C   0  0  0  0  0  0  0  0  0  0  0  0
   -8.0740   -6.7926    0.7839 C   0  0  0  0  0  0  0  0  0  0  0  0
   -6.7529   -7.2426    0.9004 C   0  0  0  0  0  0  0  0  0  0  0  0
   -5.8568   -6.5819    1.7047 C   0  0  0  0  0  0  0  0  0  0  0  0
   -6.3073   -5.4432    2.3779 C   0  0  0  0  0  0  0  0  0  0  0  0
   -5.4494   -4.7920    3.1789 F   0  0  0  0  0  0  0  0  0  0  0  0
   -4.5642   -6.9782    1.8890 O   0  0  0  0  0  0  0  0  0  0  0  0
   -4.0667   -8.1227    1.1419 C   0  0  1  0  0  0  0  0  0  0  0  0
   -5.0355   -9.0605    0.5435 C   0  0  0  0  0  0  0  0  0  0  0  0
   -4.8534  -10.2578    0.4069 O   0  0  0  0  0  0  0  0  0  0  0  0
   -6.3341   -8.4149    0.1398 C   0  0  0  0  0  0  0  0  0  0  0  0
   -7.0465   -8.8336   -0.7638 O   0  0  0  0  0  0  0  0  0  0  0  0
   -2.9006   -7.9078    0.3881 O   0  0  0  0  0  0  0  0  0  0  0  0
   -2.7691   -8.7357    1.5894 C   0  0  1  0  0  0  0  0  0  0  0  0
   -2.3912   -8.0584    2.8515 O   0  0  0  0  0  0  0  0  0  0  0  0
   -1.4380   -8.5365    2.0881 C   0  0  0  0  0  0  0  0  0  0  0  0
   -0.5128   -9.2891    2.3127 O   0  0  0  0  0  0  0  0  0  0  0  0
  -14.0862   -3.8542    3.2783 C   0  0  0  0  0  0  0  0  0  0  0  0
  -13.2426   -2.9725    3.3977 O   0  0  0  0  0  0  0  0  0  0  0  0
  -15.2910   -3.9688    4.1840 C   0  0  0  0  0  0  0  0  0  0  0  0
  -15.3829   -3.2640    5.1727 O   0  0  0  0  0  0  0  0  0  0  0  0
  -16.3349   -5.0202    3.8619 C   0  0  0  0  0  0  0  0  0  0  0  0
  -17.5150   -4.8615    4.1098 O   0  0  0  0  0  0  0  0  0  0  0  0
  1  2  1  0  0  0  0
  2  3  2  0  0  0  0
  3  4  1  0  0  0  0
  3 52  1  0  0  0  0
  4  5  1  0  0  0  0
  5  6  1  1  0  0  0
  5 48  1  0  0  0  0
  6  7  1  0  0  0  0
  7  8  2  0  0  0  0
  7 12  1  0  0  0  0
  8  9  1  0  0  0  0
  8 25  1  0  0  0  0
  9 10  1  0  0  0  0
 10 11  2  0  0  0  0
 10 21  1  0  0  0  0
 11 12  1  0  0  0  0
 11 13  1  0  0  0  0
 13 14  1  0  0  0  0
 13 19  1  0  0  0  0
 14 15  1  0  0  0  0
 15 16  2  0  0  0  0
 15 17  1  0  0  0  0
 17 18  1  0  0  0  0
 18 19  1  0  0  0  0
 19 20  2  0  0  0  0
 20 21  1  0  0  0  0
 20 22  1  0  0  0  0
 22 23  1  0  0  0  0
 22 24  1  0  0  0  0
 23 24  1  0  0  0  0
 25 26  2  0  0  0  0
 25 31  1  0  0  0  0
 26 27  1  0  0  0  0
 27 28  1  0  0  0  0
 27 29  2  0  0  0  0
 29 30  1  0  0  0  0
 30 31  2  0  0  0  0
 30 35  1  0  0  0  0
 31 32  1  0  0  0  0
 32 33  2  0  0  0  0
 33 34  1  0  0  0  0
 33 41  1  0  0  0  0
 34 35  2  0  0  0  0
 34 37  1  0  0  0  0
 35 36  1  0  0  0  0
 38 37  1  1  0  0  0
 38 39  1  0  0  0  0
 38 43  1  0  0  0  0
 38 44  1  0  0  0  0
 39 40  2  0  0  0  0
 39 41  1  0  0  0  0
 41 42  2  0  0  0  0
 44 43  1  6  0  0  0
 44 45  1  0  0  0  0
 44 46  1  0  0  0  0
 45 46  1  0  0  0  0
 46 47  2  0  0  0  0
 48 49  2  0  0  0  0
 48 50  1  0  0  0  0
 50 51  2  0  0  0  0
 50 52  1  0  0  0  0
 52 53  2  0  0  0  0
M  CHG  2  21   1  27   1
M  END
$$$$