
 OpenBabel11212001353D

 52 60  0  0  1  0  0  0  0  0999 V2000
    1.3800    6.3706   -6.9967 O   0  0  0  0  0  0  0  0  0  0  0  0
    1.2813    5.0130   -6.8402 C   0  0  0  0  0  0  0  0  0  0  0  0
    2.0669    4.3215   -6.0056 C   0  0  0  0  0  0  0  0  0  0  0  0
    3.0718    4.9532   -5.2991 O   0  0  0  0  0  0  0  0  0  0  0  0
    3.3949    4.3840   -4.0318 C   0  0  2  0  0  0  0  0  0  0  0  0
    4.4482    5.1167   -3.3994 O   0  0  0  0  0  0  0  0  0  0  0  0
    4.2224    6.4649   -3.1403 C   0  0  0  0  0  0  0  0  0  0  0  0
    5.2525    7.3369   -3.0918 C   0  0  0  0  0  0  0  0  0  0  0  0
    5.0989    8.6885   -2.8163 O   0  0  0  0  0  0  0  0  0  0  0  0
    3.8300    9.1939   -2.6067 C   0  0  0  0  0  0  0  0  0  0  0  0
    2.7325    8.4177   -2.6121 C   0  0  0  0  0  0  0  0  0  0  0  0
    2.8153    6.9436   -2.8603 C   0  0  0  0  0  0  0  0  0  0  0  0
    1.3648    9.0289   -2.4123 C   0  0  3  0  0  0  0  0  0  0  0  0
    0.7866    8.4387   -1.2512 O   0  0  0  0  0  0  0  0  0  0  0  0
   -0.3936    8.9214   -0.7871 C   0  0  0  0  0  0  0  0  0  0  0  0
   -1.0467    8.3145    0.0510 O   0  0  0  0  0  0  0  0  0  0  0  0
   -0.8365   10.0843   -1.3229 O   0  0  0  0  0  0  0  0  0  0  0  0
    0.0192   11.0160   -1.9759 C   0  0  3  0  0  0  0  0  0  0  0  0
    1.3846   10.5002   -2.1921 C   0  0  0  0  0  0  0  0  0  0  0  0
    2.5339   11.2106   -2.1794 C   0  0  0  0  0  0  0  0  0  0  0  0
    3.7265   10.5453   -2.4023 N   0  0  0  0  0  0  0  0  0  0  0  0
    2.6231   12.6714   -1.9713 C   0  0  0  0  0  0  0  0  0  0  0  0
    2.1586   13.3035   -0.7674 O   0  0  0  0  0  0  0  0  0  0  0  0
    3.5685   13.2486   -1.0548 O   0  0  0  0  0  0  0  0  0  0  0  0
   -0.5257   11.2950   -3.2570 O   0  0  0  0  0  0  0  0  0  0  0  0
    6.6561    6.9461   -3.3490 C   0  0  0  0  0  0  0  0  0  0  0  0
    7.3292    6.6699   -2.2108 N   0  0  0  0  0  0  0  0  0  0  0  0
    8.8396    6.0382   -2.3088 P   0  0  0  0  0  0  0  0  0  0  0  0
    9.3410    6.2173   -3.8596 N   0  0  0  0  0  0  0  0  0  0  0  0
    8.4999    6.5342   -4.8323 C   0  0  0  0  0  0  0  0  0  0  0  0
    7.1531    6.9160   -4.6730 C   0  0  0  0  0  0  0  0  0  0  0  0
    6.3947    7.2579   -5.8234 C   0  0  0  0  0  0  0  0  0  0  0  0
    6.9486    7.1531   -7.0988 C   0  0  0  0  0  0  0  0  0  0  0  0
    8.2553    6.7229   -7.2508 C   0  0  0  0  0  0  0  0  0  0  0  0
    9.0247    6.4653   -6.1165 C   0  0  0  0  0  0  0  0  0  0  0  0
    8.8580    6.5212   -8.4613 O   0  0  0  0  0  0  0  0  0  0  0  0
    7.9670    6.2011   -9.5375 C   0  0  2  0  0  0  0  0  0  0  0  0
    6.7325    7.0693   -9.6243 C   0  0  0  0  0  0  0  0  0  0  0  0
    6.1765    7.3697  -10.6723 O   0  0  0  0  0  0  0  0  0  0  0  0
    6.1581    7.4856   -8.2889 C   0  0  0  0  0  0  0  0  0  0  0  0
    5.0907    8.0731   -8.2129 O   0  0  0  0  0  0  0  0  0  0  0  0
    7.6001    4.7472   -9.5154 C   0  0  1  0  0  0  0  0  0  0  0  0
    6.8954    4.2659   -8.3421 O   0  0  0  0  0  0  0  0  0  0  0  0
    7.1339    4.2355  -10.7647 O   0  0  0  0  0  0  0  0  0  0  0  0
    8.2861    3.7278  -10.3012 C   0  0  0  0  0  0  0  0  0  0  0  0
    8.5684    2.5797  -10.0110 O   0  0  0  0  0  0  0  0  0  0  0  0
    3.8266    2.9401   -4.2244 C   0  0  0  0  0  0  0  0  0  0  0  0
    4.8660    2.4201   -3.8493 O   0  0  0  0  0  0  0  0  0  0  0  0
    2.7855    2.1405   -4.9600 C   0  0  0  0  0  0  0  0  0  0  0  0
    2.6628    0.9451   -4.7436 O   0  0  0  0  0  0  0  0  0  0  0  0
    1.8573    2.8493   -5.9219 C   0  0  0  0  0  0  0  0  0  0  0  0
    1.0048    2.2444   -6.5516 O   0  0  0  0  0  0  0  0  0  0  0  0
  1  2  1  0  0  0  0
  2  3  2  0  0  0  0
  3  4  1  0  0  0  0
  3 51  1  0  0  0  0
  4  5  1  0  0  0  0
  5  6  1  6  0  0  0
  5 47  1  0  0  0  0
  6  7  1  0  0  0  0
  7  8  2  0  0  0  0
  7 12  1  0  0  0  0
  8  9  1  0  0  0  0
  8 26  1  0  0  0  0
  9 10  1  0  0  0  0
 10 11  2  0  0  0  0
 10 21  1  0  0  0  0
 11 12  1  0  0  0  0
 11 13  1  0  0  0  0
 13 14  1  0  0  0  0
 13 19  1  0  0  0  0
 14 15  1  0  0  0  0
 15 16  2  0  0  0  0
 15 17  1  0  0  0  0
 17 18  1  0  0  0  0
 18 19  1  0  0  0  0
 18 25  1  0  0  0  0
 19 20  2  0  0  0  0
 20 21  1  0  0  0  0
 20 22  1  0  0  0  0
 22 23  1  0  0  0  0
 22 24  1  0  0  0  0
 23 24  1  0  0  0  0
 26 27  2  0  0  0  0
 26 31  1  0  0  0  0
 27 28  1  0  0  0  0
 28 29  2  0  0  0  0
 29 30  1  0  0  0  0
 30 31  2  0  0  0  0
 30 35  1  0  0  0  0
 31 32  1  0  0  0  0
 32 33  2  0  0  0  0
 33 34  1  0  0  0  0
 33 40  1  0  0  0  0
 34 35  2  0  0  0  0
 34 36  1  0  0  0  0
 37 36  1  1  0  0  0
 37 38  1  0  0  0  0
 37 42  1  0  0  0  0
 38 39  2  0  0  0  0
 38 40  1  0  0  0  0
 40 41  2  0  0  0  0
 42 43  1  1  0  0  0
 42 44  1  0  0  0  0
 42 45  1  0  0  0  0
 44 45  1  0  0  0  0
 45 46  2  0  0  0  0
 47 48  2  0  0  0  0
 47 49  1  0  0  0  0
 49 50  2  0  0  0  0
 49 51  1  0  0  0  0
 51 52  2  0  0  0  0
M  END
$$$$