
 OpenBabel11222001293D

 54 62  0  0  1  0  0  0  0  0999 V2000
   -0.6132    0.8521   -3.0942 O   0  0  0  0  0  0  0  0  0  0  0  0
    0.5060    1.1808   -2.3713 C   0  0  0  0  0  0  0  0  0  0  0  0
    1.4503    0.2838   -2.0658 C   0  0  0  0  0  0  0  0  0  0  0  0
    1.3066   -1.0365   -2.4723 O   0  0  0  0  0  0  0  0  0  0  0  0
    2.5351   -1.7115   -2.6740 C   0  0  2  0  0  0  0  0  0  0  0  0
    2.3014   -3.0714   -3.0725 O   0  0  0  0  0  0  0  0  0  0  0  0
    2.1664   -3.4301   -4.3959 C   0  0  0  0  0  0  0  0  0  0  0  0
    1.9420   -4.7181   -4.7651 C   0  0  0  0  0  0  0  0  0  0  0  0
    1.8618   -5.0552   -6.1359 O   0  0  0  0  0  0  0  0  0  0  0  0
    2.2080   -4.1355   -7.1296 C   0  0  0  0  0  0  0  0  0  0  0  0
    2.4454   -2.8524   -6.8168 C   0  0  0  0  0  0  0  0  0  0  0  0
    2.3234   -2.3444   -5.4242 C   0  0  0  0  0  0  0  0  0  0  0  0
    2.9148   -1.8423   -7.8185 C   0  0  3  0  0  0  0  0  0  0  0  0
    4.2257   -1.4706   -7.4227 O   0  0  0  0  0  0  0  0  0  0  0  0
    4.9365   -0.6349   -8.2214 C   0  0  0  0  0  0  0  0  0  0  0  0
    5.9371   -0.0725   -7.8078 O   0  0  0  0  0  0  0  0  0  0  0  0
    4.4918   -0.5028   -9.4918 O   0  0  0  0  0  0  0  0  0  0  0  0
    3.5056   -1.3428  -10.0904 C   0  0  3  0  0  0  0  0  0  0  0  0
    3.0332   -2.4182   -9.1709 C   0  0  0  0  0  0  0  0  0  0  0  0
    2.7425   -3.7142   -9.4451 C   0  0  0  0  0  0  0  0  0  0  0  0
    2.3244   -4.5833   -8.4315 O   0  3  0  0  0  0  0  0  0  0  0  0
    2.8035   -4.2809  -10.8116 C   0  0  0  0  0  0  0  0  0  0  0  0
    1.9458   -5.3684  -11.1899 O   0  0  0  0  0  0  0  0  0  0  0  0
    1.7444   -4.0566  -11.7513 O   0  0  0  0  0  0  0  0  0  0  0  0
    2.3702   -0.5550  -10.3830 O   0  0  0  0  0  0  0  0  0  0  0  0
    1.7490   -5.8925   -3.8060 C   0  0  0  0  0  0  0  0  0  0  0  0
    1.7921   -5.7127   -2.4196 C   0  0  0  0  0  0  0  0  0  0  0  0
    1.5979   -6.7157   -1.5603 N   0  3  0  0  0  0  0  0  0  0  0  0
    1.6605   -6.4656   -0.2376 F   0  0  0  0  0  0  0  0  0  0  0  0
    1.3482   -7.9399   -1.9542 N   0  0  0  0  0  0  0  0  0  0  0  0
    1.3058   -8.2034   -3.2622 C   0  0  0  0  0  0  0  0  0  0  0  0
    1.5124   -7.2086   -4.2465 C   0  0  0  0  0  0  0  0  0  0  0  0
    1.4846   -7.5254   -5.5558 N   0  0  0  0  0  0  0  0  0  0  0  0
    1.2114   -8.8066   -5.9239 C   0  0  0  0  0  0  0  0  0  0  0  0
    1.1689   -9.0643   -7.3660 C   0  0  0  0  0  0  0  0  0  0  0  0
    1.4848   -8.1920   -8.1701 O   0  0  0  0  0  0  0  0  0  0  0  0
    0.7316  -10.4554   -7.7839 C   0  0  0  0  0  0  0  0  0  0  0  0
    0.9016  -10.8145   -8.9396 O   0  0  0  0  0  0  0  0  0  0  0  0
    0.0754  -11.2928   -6.6970 C   0  0  1  0  0  0  0  0  0  0  0  0
    0.6573  -11.1116   -5.3921 O   0  0  0  0  0  0  0  0  0  0  0  0
    0.9766   -9.8307   -5.0374 C   0  0  0  0  0  0  0  0  0  0  0  0
    1.0588   -9.5267   -3.6726 C   0  0  0  0  0  0  0  0  0  0  0  0
    0.6500  -10.5001   -2.7314 N   0  0  0  0  0  0  0  0  0  0  0  0
   -1.4284  -11.1328   -6.6863 C   0  0  1  0  0  0  0  0  0  0  0  0
   -2.1244  -11.4892   -7.8913 O   0  0  0  0  0  0  0  0  0  0  0  0
   -2.0966  -11.4876   -5.4661 O   0  0  0  0  0  0  0  0  0  0  0  0
   -2.1094  -10.1844   -5.8056 C   0  0  0  0  0  0  0  0  0  0  0  0
   -1.7112   -9.1896   -5.2524 O   0  0  0  0  0  0  0  0  0  0  0  0
    3.2919   -1.7615   -1.3698 C   0  0  0  0  0  0  0  0  0  0  0  0
    3.6236   -2.7789   -0.7789 O   0  0  0  0  0  0  0  0  0  0  0  0
    3.5955   -0.3709   -0.8813 C   0  0  0  0  0  0  0  0  0  0  0  0
    4.6358   -0.1574   -0.2859 O   0  0  0  0  0  0  0  0  0  0  0  0
    2.6329    0.7435   -1.2672 C   0  0  0  0  0  0  0  0  0  0  0  0
    2.8495    1.9071   -0.9814 O   0  0  0  0  0  0  0  0  0  0  0  0
  1  2  1  0  0  0  0
  2  3  2  0  0  0  0
  3  4  1  0  0  0  0
  3 53  1  0  0  0  0
  4  5  1  0  0  0  0
  5  6  1  1  0  0  0
  5 49  1  0  0  0  0
  6  7  1  0  0  0  0
  7  8  2  0  0  0  0
  7 12  1  0  0  0  0
  8  9  1  0  0  0  0
  8 26  1  0  0  0  0
  9 10  1  0  0  0  0
 10 11  2  0  0  0  0
 10 21  1  0  0  0  0
 11 12  1  0  0  0  0
 11 13  1  0  0  0  0
 13 14  1  0  0  0  0
 13 19  1  0  0  0  0
 14 15  1  0  0  0  0
 15 16  2  0  0  0  0
 15 17  1  0  0  0  0
 17 18  1  0  0  0  0
 18 19  1  0  0  0  0
 18 25  1  0  0  0  0
 19 20  2  0  0  0  0
 20 21  1  0  0  0  0
 20 22  1  0  0  0  0
 22 23  1  0  0  0  0
 22 24  1  0  0  0  0
 23 24  1  0  0  0  0
 26 27  2  0  0  0  0
 26 32  1  0  0  0  0
 27 28  1  0  0  0  0
 28 29  1  0  0  0  0
 28 30  2  0  0  0  0
 30 31  1  0  0  0  0
 31 32  2  0  0  0  0
 31 42  1  0  0  0  0
 32 33  1  0  0  0  0
 33 34  2  0  0  0  0
 34 35  1  0  0  0  0
 34 41  1  0  0  0  0
 35 36  2  0  0  0  0
 35 37  1  0  0  0  0
 37 38  2  0  0  0  0
 39 37  1  6  0  0  0
 39 40  1  0  0  0  0
 39 44  1  0  0  0  0
 40 41  1  0  0  0  0
 41 42  2  0  0  0  0
 42 43  1  0  0  0  0
 44 45  1  6  0  0  0
 44 46  1  0  0  0  0
 44 47  1  0  0  0  0
 46 47  1  0  0  0  0
 47 48  2  0  0  0  0
 49 50  2  0  0  0  0
 49 51  1  0  0  0  0
 51 52  2  0  0  0  0
 51 53  1  0  0  0  0
 53 54  2  0  0  0  0
M  CHG  2  21   1  28   1
M  END
$$$$