
 OpenBabel11222001183D

 54 62  0  0  1  0  0  0  0  0999 V2000
    2.5682   -3.5362   -4.6699 O   0  0  0  0  0  0  0  0  0  0  0  0
    2.1116   -2.4834   -3.9131 C   0  0  0  0  0  0  0  0  0  0  0  0
    1.8053   -2.5851   -2.6129 C   0  0  0  0  0  0  0  0  0  0  0  0
    1.8575   -3.7952   -1.9464 O   0  0  0  0  0  0  0  0  0  0  0  0
    2.3405   -3.7048   -0.6040 C   0  0  2  0  0  0  0  0  0  0  0  0
    2.4774   -5.0211    0.0032 O   0  0  0  0  0  0  0  0  0  0  0  0
    2.9526   -6.0763   -0.7704 C   0  0  0  0  0  0  0  0  0  0  0  0
    2.5843   -7.3496   -0.4997 C   0  0  0  0  0  0  0  0  0  0  0  0
    2.9832   -8.4433   -1.2700 O   0  0  0  0  0  0  0  0  0  0  0  0
    3.7295   -8.2261   -2.4331 C   0  0  0  0  0  0  0  0  0  0  0  0
    4.1959   -7.0028   -2.7402 C   0  0  0  0  0  0  0  0  0  0  0  0
    3.9149   -5.7940   -1.8995 C   0  0  0  0  0  0  0  0  0  0  0  0
    4.9507   -6.7309   -4.0114 C   0  0  3  0  0  0  0  0  0  0  0  0
    6.2653   -6.3678   -3.6602 O   0  0  0  0  0  0  0  0  0  0  0  0
    7.0989   -6.0824   -4.6980 C   0  0  0  0  0  0  0  0  0  0  0  0
    8.1765   -5.5020   -4.5188 O   0  0  0  0  0  0  0  0  0  0  0  0
    6.6742   -6.4498   -5.9198 O   0  0  0  0  0  0  0  0  0  0  0  0
    5.8216   -7.5860   -6.0891 C   0  0  3  0  0  0  0  0  0  0  0  0
    5.0890   -7.9400   -4.8486 C   0  0  0  0  0  0  0  0  0  0  0  0
    4.6042   -9.1501   -4.4842 C   0  0  0  0  0  0  0  0  0  0  0  0
    3.9573   -9.3009   -3.2627 O   0  3  0  0  0  0  0  0  0  0  0  0
    4.6753  -10.3805   -5.3093 C   0  0  0  0  0  0  0  0  0  0  0  0
    4.7567  -11.6690   -4.6747 O   0  0  0  0  0  0  0  0  0  0  0  0
    3.5507  -11.2768   -5.3546 O   0  0  0  0  0  0  0  0  0  0  0  0
    4.8104   -7.2655   -7.0237 O   0  0  0  0  0  0  0  0  0  0  0  0
    1.6977   -7.6851    0.6378 C   0  0  0  0  0  0  0  0  0  0  0  0
    2.2702   -7.9432    1.8835 C   0  0  0  0  0  0  0  0  0  0  0  0
    1.4994   -8.1423    2.9594 N   0  3  0  0  0  0  0  0  0  0  0  0
    2.0792   -8.4084    4.1462 F   0  0  0  0  0  0  0  0  0  0  0  0
    0.1838   -8.0713    2.9091 N   0  0  0  0  0  0  0  0  0  0  0  0
   -0.4253   -7.8232    1.7445 C   0  0  0  0  0  0  0  0  0  0  0  0
    0.2905   -7.6644    0.5443 C   0  0  0  0  0  0  0  0  0  0  0  0
   -0.4315   -7.4872   -0.6668 C   0  0  0  0  0  0  0  0  0  0  0  0
   -1.8309   -7.4094   -0.6717 C   0  0  0  0  0  0  0  0  0  0  0  0
   -2.6132   -7.2958   -1.9143 C   0  0  0  0  0  0  0  0  0  0  0  0
   -2.1585   -7.4150   -3.1210 N   0  0  0  0  0  0  0  0  0  0  0  0
   -4.0893   -7.0387   -1.7610 C   0  0  0  0  0  0  0  0  0  0  0  0
   -4.8781   -7.1563   -2.7822 N   0  0  0  0  0  0  0  0  0  0  0  0
   -4.5379   -6.5799   -0.3981 C   0  0  1  0  0  0  0  0  0  0  0  0
   -3.8759   -7.3191    0.6470 O   0  0  0  0  0  0  0  0  0  0  0  0
   -2.5215   -7.4582    0.5321 C   0  0  0  0  0  0  0  0  0  0  0  0
   -1.8117   -7.6981    1.7112 C   0  0  0  0  0  0  0  0  0  0  0  0
   -2.4869   -7.7919    2.8681 F   0  0  0  0  0  0  0  0  0  0  0  0
   -4.3770   -5.0907   -0.1785 C   0  0  1  0  0  0  0  0  0  0  0  0
   -4.7884   -4.5992    1.1096 O   0  0  0  0  0  0  0  0  0  0  0  0
   -3.1627   -4.5257   -0.6827 O   0  0  0  0  0  0  0  0  0  0  0  0
   -4.3783   -4.0810   -1.3105 C   0  0  3  0  0  0  0  0  0  0  0  0
   -4.7496   -2.7350   -0.9823 O   0  0  0  0  0  0  0  0  0  0  0  0
    1.3429   -2.8988    0.2237 C   0  0  0  0  0  0  0  0  0  0  0  0
    1.0270   -3.1589    1.3773 O   0  0  0  0  0  0  0  0  0  0  0  0
    0.7365   -1.7306   -0.5361 C   0  0  0  0  0  0  0  0  0  0  0  0
   -0.2383   -1.1453   -0.0975 O   0  0  0  0  0  0  0  0  0  0  0  0
    1.2990   -1.3829   -1.9005 C   0  0  0  0  0  0  0  0  0  0  0  0
    1.3600   -0.2457   -2.3261 O   0  0  0  0  0  0  0  0  0  0  0  0
  1  2  1  0  0  0  0
  2  3  2  0  0  0  0
  3  4  1  0  0  0  0
  3 53  1  0  0  0  0
  4  5  1  0  0  0  0
  5  6  1  1  0  0  0
  5 49  1  0  0  0  0
  6  7  1  0  0  0  0
  7  8  2  0  0  0  0
  7 12  1  0  0  0  0
  8  9  1  0  0  0  0
  8 26  1  0  0  0  0
  9 10  1  0  0  0  0
 10 11  2  0  0  0  0
 10 21  1  0  0  0  0
 11 12  1  0  0  0  0
 11 13  1  0  0  0  0
 13 14  1  0  0  0  0
 13 19  1  0  0  0  0
 14 15  1  0  0  0  0
 15 16  2  0  0  0  0
 15 17  1  0  0  0  0
 17 18  1  0  0  0  0
 18 19  1  0  0  0  0
 18 25  1  0  0  0  0
 19 20  2  0  0  0  0
 20 21  1  0  0  0  0
 20 22  1  0  0  0  0
 22 23  1  0  0  0  0
 22 24  1  0  0  0  0
 23 24  1  0  0  0  0
 26 27  2  0  0  0  0
 26 32  1  0  0  0  0
 27 28  1  0  0  0  0
 28 29  1  0  0  0  0
 28 30  2  0  0  0  0
 30 31  1  0  0  0  0
 31 32  2  0  0  0  0
 31 42  1  0  0  0  0
 32 33  1  0  0  0  0
 33 34  2  0  0  0  0
 34 35  1  0  0  0  0
 34 41  1  0  0  0  0
 35 36  2  0  0  0  0
 35 37  1  0  0  0  0
 37 38  2  0  0  0  0
 39 37  1  6  0  0  0
 39 40  1  0  0  0  0
 39 44  1  0  0  0  0
 40 41  1  0  0  0  0
 41 42  2  0  0  0  0
 42 43  1  0  0  0  0
 44 45  1  1  0  0  0
 44 46  1  0  0  0  0
 44 47  1  0  0  0  0
 46 47  1  0  0  0  0
 47 48  1  0  0  0  0
 49 50  2  0  0  0  0
 49 51  1  0  0  0  0
 51 52  2  0  0  0  0
 51 53  1  0  0  0  0
 53 54  2  0  0  0  0
M  CHG  2  21   1  28   1
M  END
$$$$