
 OpenBabel09212005193D

 46 52  0  0  1  0  0  0  0  0999 V2000
    1.9404    3.0775   -5.1700 O   0  0  0  0  0  0  0  0  0  0  0  0
    2.1377    2.6788   -6.5279 C   0  0  0  0  0  0  0  0  0  0  0  0
    3.3615    3.3790   -7.1404 C   0  0  2  0  0  0  0  0  0  0  0  0
    4.5533    3.0567   -6.4166 O   0  0  0  0  0  0  0  0  0  0  0  0
    4.8342    3.8844   -5.3644 C   0  0  0  0  0  0  0  0  0  0  0  0
    5.5266    3.3448   -4.2879 C   0  0  0  0  0  0  0  0  0  0  0  0
    5.7624    4.1144   -3.1253 C   0  0  0  0  0  0  0  0  0  0  0  0
    6.3981    3.5243   -2.0386 C   0  0  0  0  0  0  0  0  0  0  0  0
    6.5438    4.2648   -0.8799 C   0  0  0  0  0  0  0  0  0  0  0  0
    6.0962    5.5365   -0.7173 N   0  0  0  0  0  0  0  0  0  0  0  0
    5.5035    6.1498   -1.7794 C   0  0  0  0  0  0  0  0  0  0  0  0
    5.3361    5.4734   -3.0303 C   0  0  0  0  0  0  0  0  0  0  0  0
    4.7591    6.0248   -4.1932 C   0  0  0  0  0  0  0  0  0  0  0  0
    4.4914    5.2261   -5.3215 C   0  0  0  0  0  0  0  0  0  0  0  0
    3.8034    5.8046   -6.4730 C   0  0  0  0  0  0  0  0  0  0  0  0
    3.8166    7.0057   -6.6834 O   0  0  0  0  0  0  0  0  0  0  0  0
    3.0485    4.8452   -7.3629 C   0  0  0  0  0  0  0  0  0  0  0  0
    2.2054    5.2577   -8.1460 O   0  0  0  0  0  0  0  0  0  0  0  0
    4.8848    7.4866   -1.4414 C   0  0  0  0  0  0  0  0  0  0  0  0
    5.4759    8.7119   -1.5149 C   0  0  0  0  0  0  0  0  0  0  0  0
    6.7808    8.9325   -1.9513 O   0  0  0  0  0  0  0  0  0  0  0  0
    7.1204   10.1964   -2.5712 C   0  0  1  0  0  0  0  0  0  0  0  0
    6.3859   10.3614   -3.7923 O   0  0  0  0  0  0  0  0  0  0  0  0
    6.6792   11.5913   -4.4745 C   0  0  1  0  0  0  0  0  0  0  0  0
    6.1838   11.5247   -5.9153 C   0  0  0  0  0  0  0  0  0  0  0  0
    6.4977   12.7290   -6.6034 O   0  0  0  0  0  0  0  0  0  0  0  0
    5.9413   12.6799   -3.7139 C   0  0  0  0  0  0  0  0  0  0  0  0
    5.2087   13.5387   -4.1705 O   0  0  0  0  0  0  0  0  0  0  0  0
    6.1794   12.5779   -2.2204 C   0  0  0  0  0  0  0  0  0  0  0  0
    5.5175   13.2509   -1.4473 O   0  0  0  0  0  0  0  0  0  0  0  0
    7.0769   11.4724   -1.6794 C   0  0  0  0  0  0  0  0  0  0  0  0
    7.5866   11.6113   -0.5825 O   0  0  0  0  0  0  0  0  0  0  0  0
    4.7309    9.9286   -1.0288 C   0  0  0  0  0  0  0  0  0  0  0  0
    3.3428    9.7214   -0.5865 C   0  0  0  0  0  0  0  0  0  0  0  0
    2.8377    8.4830   -0.5676 C   0  0  0  0  0  0  0  0  0  0  0  0
    3.5621    7.3530   -0.9422 O   0  0  0  0  0  0  0  0  0  0  0  0
    1.5355    8.3122   -0.1863 N   0  0  0  0  0  0  0  0  0  0  0  0
    0.6852    9.3390    0.1648 C   0  0  0  0  0  0  0  0  0  0  0  0
   -0.4807    9.1486    0.4869 O   0  0  0  0  0  0  0  0  0  0  0  0
    1.2404   10.7289    0.1317 C   0  0  0  0  0  0  0  0  0  0  0  0
    2.5180   10.8601   -0.2343 C   0  0  0  0  0  0  0  0  0  0  0  0
    2.9967   12.1571   -0.2776 N   0  0  0  0  0  0  0  0  0  0  0  0
    2.1663   13.3279   -0.1741 C   0  0  3  0  0  0  0  0  0  0  0  0
    1.0102   13.0980    0.6141 N   0  0  0  0  0  0  0  0  0  0  0  0
    0.3154   11.8166    0.5391 C   0  0  0  0  0  0  0  0  0  0  0  0
    2.9098   14.3805    0.4340 N   0  0  0  0  0  0  0  0  0  0  0  0
  1  2  1  0  0  0  0
  3  4  1  0  0  0  0
  3 17  1  0  0  0  0
  3  2  1  1  0  0  0
  4  5  1  0  0  0  0
  5  6  2  0  0  0  0
  5 14  1  0  0  0  0
  6  7  1  0  0  0  0
  7  8  2  0  0  0  0
  7 12  1  0  0  0  0
  8  9  1  0  0  0  0
  9 10  2  0  0  0  0
 10 11  1  0  0  0  0
 11 12  2  0  0  0  0
 11 19  1  0  0  0  0
 12 13  1  0  0  0  0
 13 14  2  0  0  0  0
 14 15  1  0  0  0  0
 15 16  2  0  0  0  0
 15 17  1  0  0  0  0
 17 18  2  0  0  0  0
 19 20  2  0  0  0  0
 19 36  1  0  0  0  0
 20 21  1  0  0  0  0
 20 33  1  0  0  0  0
 22 21  1  1  0  0  0
 22 23  1  0  0  0  0
 22 31  1  0  0  0  0
 23 24  1  0  0  0  0
 24 27  1  0  0  0  0
 24 25  1  6  0  0  0
 25 26  1  0  0  0  0
 27 28  2  0  0  0  0
 27 29  1  0  0  0  0
 29 30  2  0  0  0  0
 29 31  1  0  0  0  0
 31 32  2  0  0  0  0
 33 34  1  0  0  0  0
 34 35  2  0  0  0  0
 34 41  1  0  0  0  0
 35 36  1  0  0  0  0
 35 37  1  0  0  0  0
 37 38  1  0  0  0  0
 38 39  2  0  0  0  0
 38 40  1  0  0  0  0
 40 41  2  0  0  0  0
 40 45  1  0  0  0  0
 41 42  1  0  0  0  0
 42 43  1  0  0  0  0
 43 44  1  0  0  0  0
 43 46  1  0  0  0  0
 44 45  1  0  0  0  0
M  END
$$$$