
 OpenBabel10192022413D

 51 59  0  0  1  0  0  0  0  0999 V2000
   -2.5353   -4.5865    1.5103 O   0  0  0  0  0  0  0  0  0  0  0  0
   -2.0922   -3.2507    1.6344 O   0  3  0  0  0  0  0  0  0  0  0  0
   -0.8056   -3.0896    1.5979 C   0  0  0  0  0  0  0  0  0  0  0  0
    0.0283   -4.1319    1.4100 O   0  0  0  0  0  0  0  0  0  0  0  0
    1.4598   -3.9521    1.1891 C   0  0  2  0  0  0  0  0  0  0  0  0
    2.1999   -5.1602    1.3489 O   0  0  0  0  0  0  0  0  0  0  0  0
    1.8992   -6.3658    0.7426 C   0  0  0  0  0  0  0  0  0  0  0  0
    1.5777   -6.6356   -0.5547 C   0  0  0  0  0  0  0  0  0  0  0  0
    1.3096   -7.9560   -0.9811 O   0  0  0  0  0  0  0  0  0  0  0  0
    1.5272   -9.0494   -0.1428 C   0  0  0  0  0  0  0  0  0  0  0  0
    1.9426   -8.8899    1.1215 C   0  0  0  0  0  0  0  0  0  0  0  0
    2.1162   -7.5326    1.7242 C   0  0  0  0  0  0  0  0  0  0  0  0
    2.2432  -10.1300    1.9218 C   0  0  0  0  0  0  0  0  0  0  0  0
    2.6747  -10.0473    3.1384 N   0  0  0  0  0  0  0  0  0  0  0  0
    2.9584  -11.2076    3.8422 C   0  0  0  0  0  0  0  0  0  0  0  0
    3.3471  -11.0991    4.9979 O   0  0  0  0  0  0  0  0  0  0  0  0
    2.8108  -12.4751    3.3158 N   0  0  0  0  0  0  0  0  0  0  0  0
    2.3764  -12.5977    2.1096 C   0  0  0  0  0  0  0  0  0  0  0  0
    2.0296  -11.4484    1.2659 C   0  0  0  0  0  0  0  0  0  0  0  0
    1.5520  -11.4955    0.0056 C   0  0  0  0  0  0  0  0  0  0  0  0
    1.2906  -10.3019   -0.6642 N   0  0  0  0  0  0  0  0  0  0  0  0
    1.2602  -12.7359   -0.7609 C   0  0  0  0  0  0  0  0  0  0  0  0
    1.9166  -13.0013   -2.0139 O   0  0  0  0  0  0  0  0  0  0  0  0
    2.1794  -13.8337   -0.8699 O   0  0  0  0  0  0  0  0  0  0  0  0
    1.5976   -5.7032   -1.7304 C   0  0  0  0  0  0  0  0  0  0  0  0
    2.8027   -5.6373   -2.3453 N   0  0  0  0  0  0  0  0  0  0  0  0
    2.8636   -4.9934   -3.5226 C   0  0  0  0  0  0  0  0  0  0  0  0
    1.8413   -4.3946   -4.1313 N   0  0  0  0  0  0  0  0  0  0  0  0
    0.6514   -4.5267   -3.5712 C   0  0  0  0  0  0  0  0  0  0  0  0
    0.4413   -5.1396   -2.3195 C   0  0  0  0  0  0  0  0  0  0  0  0
   -0.8875   -5.2087   -1.8396 C   0  0  0  0  0  0  0  0  0  0  0  0
   -1.9571   -4.9033   -2.7019 C   0  0  0  0  0  0  0  0  0  0  0  0
   -1.7259   -4.4330   -3.9820 C   0  0  0  0  0  0  0  0  0  0  0  0
   -0.4216   -4.1392   -4.3533 C   0  0  0  0  0  0  0  0  0  0  0  0
   -2.6560   -4.3031   -4.9672 O   0  0  0  0  0  0  0  0  0  0  0  0
   -3.9963   -4.7440   -4.7193 C   0  0  2  0  0  0  0  0  0  0  0  0
   -4.4194   -4.7715   -3.2691 C   0  0  0  0  0  0  0  0  0  0  0  0
   -5.5330   -4.4884   -2.8520 O   0  0  0  0  0  0  0  0  0  0  0  0
   -3.3342   -5.1595   -2.2883 C   0  0  0  0  0  0  0  0  0  0  0  0
   -3.5711   -5.5898   -1.1653 O   0  0  0  0  0  0  0  0  0  0  0  0
   -4.2919   -6.0548   -5.4081 C   0  0  1  0  0  0  0  0  0  0  0  0
   -3.4210   -7.1701   -5.0980 O   0  0  0  0  0  0  0  0  0  0  0  0
   -5.6829   -6.4016   -5.4792 O   0  0  0  0  0  0  0  0  0  0  0  0
   -5.0764   -6.1048   -6.6236 C   0  0  0  0  0  0  0  0  0  0  0  0
   -5.3209   -5.2600   -7.4827 O   0  0  0  0  0  0  0  0  0  0  0  0
    1.9141   -2.9027    2.2090 C   0  0  0  0  0  0  0  0  0  0  0  0
    2.3913   -3.0896    3.3134 O   0  0  0  0  0  0  0  0  0  0  0  0
    1.2681   -1.5884    1.9110 C   0  0  0  0  0  0  0  0  0  0  0  0
    1.8933   -0.5597    1.7742 O   0  0  0  0  0  0  0  0  0  0  0  0
   -0.2120   -1.6867    1.7030 C   0  0  0  0  0  0  0  0  0  0  0  0
   -0.9206   -0.7032    1.5930 O   0  0  0  0  0  0  0  0  0  0  0  0
  1  2  1  0  0  0  0
  2  3  2  0  0  0  0
  3  4  1  0  0  0  0
  3 50  1  0  0  0  0
  4  5  1  0  0  0  0
  5  6  1  1  0  0  0
  5 46  1  0  0  0  0
  6  7  1  0  0  0  0
  7  8  2  0  0  0  0
  7 12  1  0  0  0  0
  8  9  1  0  0  0  0
  8 25  1  0  0  0  0
  9 10  1  0  0  0  0
 10 11  2  0  0  0  0
 10 21  1  0  0  0  0
 11 12  1  0  0  0  0
 11 13  1  0  0  0  0
 13 14  2  0  0  0  0
 13 19  1  0  0  0  0
 14 15  1  0  0  0  0
 15 16  2  0  0  0  0
 15 17  1  0  0  0  0
 17 18  2  0  0  0  0
 18 19  1  0  0  0  0
 19 20  2  0  0  0  0
 20 21  1  0  0  0  0
 20 22  1  0  0  0  0
 22 23  1  0  0  0  0
 22 24  1  0  0  0  0
 23 24  1  0  0  0  0
 25 26  2  0  0  0  0
 25 30  1  0  0  0  0
 26 27  1  0  0  0  0
 27 28  2  0  0  0  0
 28 29  1  0  0  0  0
 29 30  2  0  0  0  0
 29 34  1  0  0  0  0
 30 31  1  0  0  0  0
 31 32  2  0  0  0  0
 32 33  1  0  0  0  0
 32 39  1  0  0  0  0
 33 34  2  0  0  0  0
 33 35  1  0  0  0  0
 36 35  1  1  0  0  0
 36 37  1  0  0  0  0
 36 41  1  0  0  0  0
 37 38  2  0  0  0  0
 37 39  1  0  0  0  0
 39 40  2  0  0  0  0
 41 42  1  1  0  0  0
 41 43  1  0  0  0  0
 41 44  1  0  0  0  0
 43 44  1  0  0  0  0
 44 45  2  0  0  0  0
 46 47  2  0  0  0  0
 46 48  1  0  0  0  0
 48 49  2  0  0  0  0
 48 50  1  0  0  0  0
 50 51  2  0  0  0  0
M  CHG  1   2   1
M  END
$$$$