
 OpenBabel11212011543D

 53 61  0  0  1  0  0  0  0  0999 V2000
   -1.9480   -2.2579   -3.8021 O   0  0  0  0  0  0  0  0  0  0  0  0
   -1.4288   -1.2771   -2.9968 C   0  0  0  0  0  0  0  0  0  0  0  0
   -0.3283   -1.4604   -2.2562 C   0  0  0  0  0  0  0  0  0  0  0  0
    0.2902   -2.6933   -2.2399 O   0  0  0  0  0  0  0  0  0  0  0  0
    1.6417   -2.7313   -1.8068 C   0  0  2  0  0  0  0  0  0  0  0  0
    2.0891   -4.0880   -1.6676 O   0  0  0  0  0  0  0  0  0  0  0  0
    2.0770   -4.8515   -2.8313 C   0  0  0  0  0  0  0  0  0  0  0  0
    1.8680   -6.1857   -2.7991 C   0  0  0  0  0  0  0  0  0  0  0  0
    1.9046   -6.9927   -3.9350 O   0  0  0  0  0  0  0  0  0  0  0  0
    2.2686   -6.4284   -5.1519 C   0  0  0  0  0  0  0  0  0  0  0  0
    2.5482   -5.1203   -5.2754 C   0  0  0  0  0  0  0  0  0  0  0  0
    2.4252   -4.1740   -4.1309 C   0  0  0  0  0  0  0  0  0  0  0  0
    2.9616   -4.5356   -6.6005 C   0  0  3  0  0  0  0  0  0  0  0  0
    4.2576   -3.9636   -6.4293 O   0  0  0  0  0  0  0  0  0  0  0  0
    5.0334   -3.6403   -7.4929 C   0  0  0  0  0  0  0  0  0  0  0  0
    6.0593   -2.9879   -7.3488 O   0  0  0  0  0  0  0  0  0  0  0  0
    4.6568   -4.0990   -8.7110 O   0  0  0  0  0  0  0  0  0  0  0  0
    3.4749   -4.8565   -8.9410 C   0  0  3  0  0  0  0  0  0  0  0  0
    3.0173   -5.5239   -7.7067 C   0  0  0  0  0  0  0  0  0  0  0  0
    2.6903   -6.8234   -7.5260 C   0  0  0  0  0  0  0  0  0  0  0  0
    2.3433   -7.2527   -6.2500 N   0  0  0  0  0  0  0  0  0  0  0  0
    2.6756   -7.8437   -8.5982 C   0  0  0  0  0  0  0  0  0  0  0  0
    1.4784   -8.5623   -8.9388 O   0  0  0  0  0  0  0  0  0  0  0  0
    2.0365   -7.6136   -9.8663 O   0  0  0  0  0  0  0  0  0  0  0  0
    2.4534   -3.9823   -9.3866 O   0  0  0  0  0  0  0  0  0  0  0  0
    1.6990   -6.9246   -1.5363 C   0  0  0  0  0  0  0  0  0  0  0  0
    2.8465   -7.4317   -0.9426 C   0  0  0  0  0  0  0  0  0  0  0  0
    2.8378   -8.0717    0.2384 N   0  0  0  0  0  0  0  0  0  0  0  0
    1.6612   -8.2082    0.9091 N   0  0  0  0  0  0  0  0  0  0  0  0
    0.5114   -7.7368    0.4000 C   0  0  0  0  0  0  0  0  0  0  0  0
    0.4708   -7.0980   -0.8587 C   0  0  0  0  0  0  0  0  0  0  0  0
   -0.7840   -6.6725   -1.3638 C   0  0  0  0  0  0  0  0  0  0  0  0
   -1.9543   -6.8372   -0.6118 C   0  0  0  0  0  0  0  0  0  0  0  0
   -3.2637   -6.4595   -1.1631 C   0  0  0  0  0  0  0  0  0  0  0  0
   -3.3911   -6.0353   -2.2990 O   0  0  0  0  0  0  0  0  0  0  0  0
   -4.4545   -6.6578   -0.2497 C   0  0  0  0  0  0  0  0  0  0  0  0
   -5.5792   -6.8155   -0.7009 O   0  0  0  0  0  0  0  0  0  0  0  0
   -4.1027   -6.6904    1.2193 C   0  0  1  0  0  0  0  0  0  0  0  0
   -2.9726   -7.5356    1.4880 O   0  0  0  0  0  0  0  0  0  0  0  0
   -1.8954   -7.3911    0.6572 C   0  0  0  0  0  0  0  0  0  0  0  0
   -0.6691   -7.8602    1.1291 C   0  0  0  0  0  0  0  0  0  0  0  0
   -0.6347   -8.4292    2.3474 F   0  0  0  0  0  0  0  0  0  0  0  0
   -3.9175   -5.3510    1.8804 C   0  0  1  0  0  0  0  0  0  0  0  0
   -3.5935   -5.3772    3.2867 O   0  0  0  0  0  0  0  0  0  0  0  0
   -3.2097   -4.3593    1.1350 O   0  0  0  0  0  0  0  0  0  0  0  0
   -4.5219   -4.1257    1.3694 C   0  0  0  0  0  0  0  0  0  0  0  0
   -5.4147   -3.9192    0.5860 O   0  0  0  0  0  0  0  0  0  0  0  0
    1.7895   -1.9801   -0.4862 C   0  0  0  0  0  0  0  0  0  0  0  0
    2.2999   -2.4665    0.5223 O   0  0  0  0  0  0  0  0  0  0  0  0
    1.3811   -0.5328   -0.5754 C   0  0  3  0  0  0  0  0  0  0  0  0
    0.1488   -0.3131   -1.4183 C   0  0  0  0  0  0  0  0  0  0  0  0
   -0.4205    0.7781   -1.4611 O   0  0  0  0  0  0  0  0  0  0  0  0
    1.2433    0.0334    0.6614 F   0  0  0  0  0  0  0  0  0  0  0  0
  1  2  1  0  0  0  0
  2  3  2  0  0  0  0
  3  4  1  0  0  0  0
  3 51  1  0  0  0  0
  4  5  1  0  0  0  0
  5  6  1  1  0  0  0
  5 48  1  0  0  0  0
  6  7  1  0  0  0  0
  7  8  2  0  0  0  0
  7 12  1  0  0  0  0
  8  9  1  0  0  0  0
  8 26  1  0  0  0  0
  9 10  1  0  0  0  0
 10 11  2  0  0  0  0
 10 21  1  0  0  0  0
 11 12  1  0  0  0  0
 11 13  1  0  0  0  0
 13 14  1  0  0  0  0
 13 19  1  0  0  0  0
 14 15  1  0  0  0  0
 15 16  2  0  0  0  0
 15 17  1  0  0  0  0
 17 18  1  0  0  0  0
 18 19  1  0  0  0  0
 18 25  1  0  0  0  0
 19 20  2  0  0  0  0
 20 21  1  0  0  0  0
 20 22  1  0  0  0  0
 22 23  1  0  0  0  0
 22 24  1  0  0  0  0
 23 24  1  0  0  0  0
 26 27  2  0  0  0  0
 26 31  1  0  0  0  0
 27 28  1  0  0  0  0
 28 29  2  0  0  0  0
 29 30  1  0  0  0  0
 30 31  2  0  0  0  0
 30 41  1  0  0  0  0
 31 32  1  0  0  0  0
 32 33  2  0  0  0  0
 33 34  1  0  0  0  0
 33 40  1  0  0  0  0
 34 35  2  0  0  0  0
 34 36  1  0  0  0  0
 36 37  2  0  0  0  0
 38 36  1  6  0  0  0
 38 39  1  0  0  0  0
 38 43  1  0  0  0  0
 39 40  1  0  0  0  0
 40 41  2  0  0  0  0
 41 42  1  0  0  0  0
 43 44  1  1  0  0  0
 43 45  1  0  0  0  0
 43 46  1  0  0  0  0
 45 46  1  0  0  0  0
 46 47  2  0  0  0  0
 48 49  2  0  0  0  0
 48 50  1  0  0  0  0
 50 51  1  0  0  0  0
 50 53  1  0  0  0  0
 51 52  2  0  0  0  0
M  END
$$$$