
 OpenBabel10282009273D

 51 59  0  0  1  0  0  0  0  0999 V2000
    4.2723   -5.8117    1.2607 N   0  0  0  0  0  0  0  0  0  0  0  0
    3.0251   -5.6309    0.9751 C   0  0  0  0  0  0  0  0  0  0  0  0
    2.4879   -4.2498    0.6468 C   0  0  3  0  0  0  0  0  0  0  0  0
    2.6344   -3.2994    1.6813 O   0  0  0  0  0  0  0  0  0  0  0  0
    3.9410   -2.7493    1.8474 C   0  0  2  0  0  0  0  0  0  0  0  0
    3.9669   -1.8336    2.9623 O   0  0  0  0  0  0  0  0  0  0  0  0
    3.6159   -2.3592    4.2029 C   0  0  0  0  0  0  0  0  0  0  0  0
    2.9996   -1.6134    5.1493 C   0  0  0  0  0  0  0  0  0  0  0  0
    2.6104   -2.1354    6.3863 O   0  0  0  0  0  0  0  0  0  0  0  0
    2.9460   -3.4395    6.7159 C   0  0  0  0  0  0  0  0  0  0  0  0
    3.6273   -4.2346    5.8761 C   0  0  0  0  0  0  0  0  0  0  0  0
    3.9964   -3.7915    4.4996 C   0  0  0  0  0  0  0  0  0  0  0  0
    4.0166   -5.6311    6.2830 C   0  0  3  0  0  0  0  0  0  0  0  0
    5.4362   -5.7222    6.2258 O   0  0  0  0  0  0  0  0  0  0  0  0
    5.9829   -6.9292    6.5148 C   0  0  0  0  0  0  0  0  0  0  0  0
    7.1106   -7.2325    6.1540 O   0  0  0  0  0  0  0  0  0  0  0  0
    5.1755   -7.7968    7.1788 O   0  0  0  0  0  0  0  0  0  0  0  0
    4.1334   -7.3341    8.0575 C   0  0  0  0  0  0  0  0  0  0  0  0
    3.6158   -5.9977    7.6706 C   0  0  0  0  0  0  0  0  0  0  0  0
    2.9036   -5.1560    8.4534 C   0  0  0  0  0  0  0  0  0  0  0  0
    2.5702   -3.9050    7.9535 N   0  0  0  0  0  0  0  0  0  0  0  0
    2.4615   -5.4630    9.8330 C   0  0  0  0  0  0  0  0  0  0  0  0
    1.0707   -5.4720   10.1961 O   0  0  0  0  0  0  0  0  0  0  0  0
    1.8175   -6.7029   10.1744 O   0  0  0  0  0  0  0  0  0  0  0  0
    2.6369   -0.1857    4.9934 C   0  0  0  0  0  0  0  0  0  0  0  0
    1.4181    0.0195    4.4469 N   0  0  0  0  0  0  0  0  0  0  0  0
    1.0172    1.2922    4.3692 C   0  0  0  0  0  0  0  0  0  0  0  0
    1.6997    2.3674    4.7848 N   0  0  0  0  0  0  0  0  0  0  0  0
    2.8924    2.1525    5.3423 C   0  0  0  0  0  0  0  0  0  0  0  0
    3.4417    0.8661    5.4843 C   0  0  0  0  0  0  0  0  0  0  0  0
    4.7076    0.7323    6.1105 C   0  0  0  0  0  0  0  0  0  0  0  0
    5.3704    1.8546    6.6237 C   0  0  0  0  0  0  0  0  0  0  0  0
    4.8095    3.1148    6.5019 C   0  0  0  0  0  0  0  0  0  0  0  0
    3.5971    3.2534    5.8261 C   0  0  0  0  0  0  0  0  0  0  0  0
    5.3812    4.2579    6.9823 O   0  0  0  0  0  0  0  0  0  0  0  0
    6.2558    4.0997    8.1073 C   0  0  2  0  0  0  0  0  0  0  0  0
    7.2019    2.9267    8.0260 C   0  0  0  0  0  0  0  0  0  0  0  0
    8.2740    2.8845    8.6147 O   0  0  0  0  0  0  0  0  0  0  0  0
    6.6624    1.7132    7.3013 C   0  0  0  0  0  0  0  0  0  0  0  0
    7.2614    0.6503    7.3279 O   0  0  0  0  0  0  0  0  0  0  0  0
    5.4790    4.1481    9.3932 C   0  0  1  0  0  0  0  0  0  0  0  0
    4.7345    5.3692    9.6288 O   0  0  0  0  0  0  0  0  0  0  0  0
    4.8039    2.9339    9.7235 O   0  0  0  0  0  0  0  0  0  0  0  0
    5.7525    3.3490   10.5953 C   0  0  0  0  0  0  0  0  0  0  0  0
    5.6277    3.6255   11.7639 O   0  0  0  0  0  0  0  0  0  0  0  0
    4.3627   -2.0059    0.5866 C   0  0  0  0  0  0  0  0  0  0  0  0
    4.8959   -0.9067    0.5334 O   0  0  0  0  0  0  0  0  0  0  0  0
    4.0819   -2.7801   -0.6779 C   0  0  0  0  0  0  0  0  0  0  0  0
    4.7350   -2.5595   -1.6879 O   0  0  0  0  0  0  0  0  0  0  0  0
    2.9952   -3.8270   -0.7103 C   0  0  0  0  0  0  0  0  0  0  0  0
    2.6230   -4.3364   -1.7589 O   0  0  0  0  0  0  0  0  0  0  0  0
  1  2  2  0  0  0  0
  2  3  1  0  0  0  0
  3  4  1  0  0  0  0
  3 50  1  0  0  0  0
  4  5  1  0  0  0  0
  5  6  1  1  0  0  0
  5 46  1  0  0  0  0
  6  7  1  0  0  0  0
  7  8  2  0  0  0  0
  7 12  1  0  0  0  0
  8  9  1  0  0  0  0
  8 25  1  0  0  0  0
  9 10  1  0  0  0  0
 10 11  2  0  0  0  0
 10 21  1  0  0  0  0
 11 12  1  0  0  0  0
 11 13  1  0  0  0  0
 13 14  1  0  0  0  0
 13 19  1  0  0  0  0
 14 15  1  0  0  0  0
 15 16  2  0  0  0  0
 15 17  1  0  0  0  0
 17 18  1  0  0  0  0
 18 19  1  0  0  0  0
 19 20  2  0  0  0  0
 20 21  1  0  0  0  0
 20 22  1  0  0  0  0
 22 23  1  0  0  0  0
 22 24  1  0  0  0  0
 23 24  1  0  0  0  0
 25 26  2  0  0  0  0
 25 30  1  0  0  0  0
 26 27  1  0  0  0  0
 27 28  2  0  0  0  0
 28 29  1  0  0  0  0
 29 30  2  0  0  0  0
 29 34  1  0  0  0  0
 30 31  1  0  0  0  0
 31 32  2  0  0  0  0
 32 33  1  0  0  0  0
 32 39  1  0  0  0  0
 33 34  2  0  0  0  0
 33 35  1  0  0  0  0
 36 35  1  6  0  0  0
 36 37  1  0  0  0  0
 36 41  1  0  0  0  0
 37 38  2  0  0  0  0
 37 39  1  0  0  0  0
 39 40  2  0  0  0  0
 41 42  1  1  0  0  0
 41 43  1  0  0  0  0
 41 44  1  0  0  0  0
 43 44  1  0  0  0  0
 44 45  2  0  0  0  0
 46 47  2  0  0  0  0
 46 48  1  0  0  0  0
 48 49  2  0  0  0  0
 48 50  1  0  0  0  0
 50 51  2  0  0  0  0
M  END
$$$$