
 OpenBabel11192015273D

 52 60  0  0  1  0  0  0  0  0999 V2000
    2.0696    2.8929   -4.4403 O   0  0  0  0  0  0  0  0  0  0  0  0
    2.4048    2.6014   -3.1433 C   0  0  0  0  0  0  0  0  0  0  0  0
    2.2950    1.3771   -2.6100 C   0  0  0  0  0  0  0  0  0  0  0  0
    1.7704    0.3127   -3.3166 O   0  0  0  0  0  0  0  0  0  0  0  0
    2.3924   -0.9482   -3.0506 C   0  0  2  0  0  0  0  0  0  0  0  0
    1.8130   -2.0086   -3.8422 O   0  0  0  0  0  0  0  0  0  0  0  0
    2.0336   -1.9862   -5.2145 C   0  0  0  0  0  0  0  0  0  0  0  0
    2.0154   -3.1228   -5.9548 C   0  0  0  0  0  0  0  0  0  0  0  0
    2.2255   -3.1125   -7.3395 O   0  0  0  0  0  0  0  0  0  0  0  0
    2.5190   -1.9181   -7.9837 C   0  0  0  0  0  0  0  0  0  0  0  0
    2.5568   -0.7434   -7.3362 C   0  0  0  0  0  0  0  0  0  0  0  0
    2.2772   -0.6475   -5.8781 C   0  0  0  0  0  0  0  0  0  0  0  0
    2.8591    0.5433   -8.0684 C   0  0  3  0  0  0  0  0  0  0  0  0
    4.0374    1.1080   -7.4933 O   0  0  0  0  0  0  0  0  0  0  0  0
    4.6857    2.1310   -8.1031 C   0  0  0  0  0  0  0  0  0  0  0  0
    5.5645    2.7579   -7.5248 O   0  0  0  0  0  0  0  0  0  0  0  0
    4.3537    2.4102   -9.3876 O   0  0  0  0  0  0  0  0  0  0  0  0
    3.4003    1.6717  -10.1439 C   0  0  3  0  0  0  0  0  0  0  0  0
    3.0985    0.3654   -9.5250 C   0  0  0  0  0  0  0  0  0  0  0  0
    3.0449   -0.8495  -10.1167 C   0  0  0  0  0  0  0  0  0  0  0  0
    2.7748   -1.9627   -9.3315 N   0  0  0  0  0  0  0  0  0  0  0  0
    3.2495   -1.0959  -11.5621 C   0  0  0  0  0  0  0  0  0  0  0  0
    2.5902   -2.1733  -12.2503 O   0  0  0  0  0  0  0  0  0  0  0  0
    2.2290   -0.8070  -12.5305 O   0  0  0  0  0  0  0  0  0  0  0  0
    2.1994    2.4201  -10.2130 O   0  0  0  0  0  0  0  0  0  0  0  0
    1.8467   -4.4974   -5.4046 C   0  0  0  0  0  0  0  0  0  0  0  0
    3.3281   -5.1792   -4.9242 P   0  0  0  0  0  0  0  0  0  0  0  0
    2.9388   -6.6374   -4.4901 N   0  0  0  0  0  0  0  0  0  0  0  0
    1.7301   -7.1651   -4.4802 N   0  0  0  0  0  0  0  0  0  0  0  0
    0.6256   -6.5423   -4.8850 C   0  0  0  0  0  0  0  0  0  0  0  0
    0.6265   -5.2217   -5.3687 C   0  0  0  0  0  0  0  0  0  0  0  0
   -0.6156   -4.7015   -5.8167 C   0  0  0  0  0  0  0  0  0  0  0  0
   -1.7933   -5.4703   -5.7770 C   0  0  0  0  0  0  0  0  0  0  0  0
   -1.7747   -6.7533   -5.2600 C   0  0  0  0  0  0  0  0  0  0  0  0
   -0.5588   -7.2733   -4.8261 C   0  0  0  0  0  0  0  0  0  0  0  0
   -2.8509   -7.5837   -5.1481 O   0  0  0  0  0  0  0  0  0  0  0  0
   -4.1463   -7.0513   -5.4488 C   0  0  2  0  0  0  0  0  0  0  0  0
   -4.1808   -5.9340   -6.4614 C   0  0  0  0  0  0  0  0  0  0  0  0
   -5.0317   -5.8060   -7.3304 O   0  0  0  0  0  0  0  0  0  0  0  0
   -3.0457   -4.9471   -6.3332 C   0  0  0  0  0  0  0  0  0  0  0  0
   -3.1555   -3.7945   -6.7167 O   0  0  0  0  0  0  0  0  0  0  0  0
   -4.8414   -6.6622   -4.1772 C   0  0  1  0  0  0  0  0  0  0  0  0
   -4.1867   -5.6698   -3.3568 O   0  0  0  0  0  0  0  0  0  0  0  0
   -6.2686   -6.5303   -4.2597 O   0  0  0  0  0  0  0  0  0  0  0  0
   -5.7969   -7.5555   -3.5471 C   0  0  0  0  0  0  0  0  0  0  0  0
   -5.9724   -8.7575   -3.6393 O   0  0  0  0  0  0  0  0  0  0  0  0
    2.2241   -1.3337   -1.5871 C   0  0  0  0  0  0  0  0  0  0  0  0
    2.0740   -2.4690   -1.1574 O   0  0  0  0  0  0  0  0  0  0  0  0
    2.3295   -0.1603   -0.6409 C   0  0  0  0  0  0  0  0  0  0  0  0
    2.1152   -0.3019    0.5530 O   0  0  0  0  0  0  0  0  0  0  0  0
    2.6789    1.2045   -1.1868 C   0  0  0  0  0  0  0  0  0  0  0  0
    3.2391    2.0503   -0.5114 O   0  0  0  0  0  0  0  0  0  0  0  0
  1  2  1  0  0  0  0
  2  3  2  0  0  0  0
  3  4  1  0  0  0  0
  3 51  1  0  0  0  0
  4  5  1  0  0  0  0
  5  6  1  6  0  0  0
  5 47  1  0  0  0  0
  6  7  1  0  0  0  0
  7  8  2  0  0  0  0
  7 12  1  0  0  0  0
  8  9  1  0  0  0  0
  8 26  1  0  0  0  0
  9 10  1  0  0  0  0
 10 11  2  0  0  0  0
 10 21  1  0  0  0  0
 11 12  1  0  0  0  0
 11 13  1  0  0  0  0
 13 14  1  0  0  0  0
 13 19  1  0  0  0  0
 14 15  1  0  0  0  0
 15 16  2  0  0  0  0
 15 17  1  0  0  0  0
 17 18  1  0  0  0  0
 18 19  1  0  0  0  0
 18 25  1  0  0  0  0
 19 20  2  0  0  0  0
 20 21  1  0  0  0  0
 20 22  1  0  0  0  0
 22 23  1  0  0  0  0
 22 24  1  0  0  0  0
 23 24  1  0  0  0  0
 26 27  2  0  0  0  0
 26 31  1  0  0  0  0
 27 28  1  0  0  0  0
 28 29  2  0  0  0  0
 29 30  1  0  0  0  0
 30 31  2  0  0  0  0
 30 35  1  0  0  0  0
 31 32  1  0  0  0  0
 32 33  2  0  0  0  0
 33 34  1  0  0  0  0
 33 40  1  0  0  0  0
 34 35  2  0  0  0  0
 34 36  1  0  0  0  0
 37 36  1  1  0  0  0
 37 38  1  0  0  0  0
 37 42  1  0  0  0  0
 38 39  2  0  0  0  0
 38 40  1  0  0  0  0
 40 41  2  0  0  0  0
 42 43  1  1  0  0  0
 42 44  1  0  0  0  0
 42 45  1  0  0  0  0
 44 45  1  0  0  0  0
 45 46  2  0  0  0  0
 47 48  2  0  0  0  0
 47 49  1  0  0  0  0
 49 50  2  0  0  0  0
 49 51  1  0  0  0  0
 51 52  2  0  0  0  0
M  END
$$$$