
 OpenBabel11222014233D

 54 62  0  0  1  0  0  0  0  0999 V2000
   -2.0700    3.1279   -3.9628 O   0  0  0  0  0  0  0  0  0  0  0  0
   -1.7124    1.9456   -3.3646 C   0  0  0  0  0  0  0  0  0  0  0  0
   -0.4594    1.6784   -2.9751 C   0  0  0  0  0  0  0  0  0  0  0  0
    0.5622    2.5805   -3.2243 O   0  0  0  0  0  0  0  0  0  0  0  0
    1.6236    2.6062   -2.2837 C   0  0  2  0  0  0  0  0  0  0  0  0
    2.7409    3.3634   -2.7985 O   0  0  0  0  0  0  0  0  0  0  0  0
    2.5450    4.6934   -3.1167 C   0  0  0  0  0  0  0  0  0  0  0  0
    3.2755    5.2614   -4.0961 C   0  0  0  0  0  0  0  0  0  0  0  0
    3.2379    6.6246   -4.3792 O   0  0  0  0  0  0  0  0  0  0  0  0
    2.5040    7.4746   -3.5468 C   0  0  0  0  0  0  0  0  0  0  0  0
    1.7553    6.9956   -2.5328 C   0  0  0  0  0  0  0  0  0  0  0  0
    1.6285    5.5222   -2.2564 C   0  0  0  0  0  0  0  0  0  0  0  0
    1.0022    7.9062   -1.6004 C   0  0  3  0  0  0  0  0  0  0  0  0
    1.5534    7.7330   -0.3065 O   0  0  0  0  0  0  0  0  0  0  0  0
    1.0178    8.4855    0.6955 C   0  0  0  0  0  0  0  0  0  0  0  0
    1.2079    8.2143    1.8686 O   0  0  0  0  0  0  0  0  0  0  0  0
    0.2528    9.5275    0.2936 O   0  0  0  0  0  0  0  0  0  0  0  0
    0.4905   10.1869   -0.9440 C   0  0  3  0  0  0  0  0  0  0  0  0
    1.2111    9.3365   -1.9283 C   0  0  0  0  0  0  0  0  0  0  0  0
    1.9729    9.7494   -2.9660 C   0  0  0  0  0  0  0  0  0  0  0  0
    2.5952    8.8252   -3.7876 O   0  3  0  0  0  0  0  0  0  0  0  0
    2.2349   11.1680   -3.3096 C   0  0  0  0  0  0  0  0  0  0  0  0
    3.5703   11.6891   -3.2418 O   0  0  0  0  0  0  0  0  0  0  0  0
    2.9424   11.4940   -4.5217 O   0  0  0  0  0  0  0  0  0  0  0  0
   -0.7532   10.4533   -1.5594 O   0  0  0  0  0  0  0  0  0  0  0  0
    4.2718    4.4827   -4.8644 C   0  0  0  0  0  0  0  0  0  0  0  0
    5.5771    4.4593   -4.3759 C   0  0  0  0  0  0  0  0  0  0  0  0
    6.5228    3.7351   -4.9813 N   0  3  0  0  0  0  0  0  0  0  0  0
    7.7722    3.7325   -4.4786 F   0  0  0  0  0  0  0  0  0  0  0  0
    6.2817    3.0172   -6.0571 N   0  0  0  0  0  0  0  0  0  0  0  0
    5.0424    2.9578   -6.5504 C   0  0  0  0  0  0  0  0  0  0  0  0
    3.9703    3.6824   -5.9887 C   0  0  0  0  0  0  0  0  0  0  0  0
    2.6800    3.5410   -6.5684 C   0  0  0  0  0  0  0  0  0  0  0  0
    2.4615    2.6723   -7.6475 C   0  0  0  0  0  0  0  0  0  0  0  0
    1.1495    2.4842   -8.2511 C   0  0  0  0  0  0  0  0  0  0  0  0
    0.9609    1.4369   -9.0577 C   0  0  0  0  0  0  0  0  0  0  0  0
   -0.2490    1.2449   -9.6258 F   0  0  0  0  0  0  0  0  0  0  0  0
    2.0773    0.4637   -9.3416 C   0  0  1  0  0  0  0  0  0  0  0  0
    3.3899    1.0763   -9.2164 O   0  0  0  0  0  0  0  0  0  0  0  0
    3.5325    1.9544   -8.1725 C   0  0  0  0  0  0  0  0  0  0  0  0
    4.8045    2.1301   -7.6410 C   0  0  0  0  0  0  0  0  0  0  0  0
    5.8329    1.4497   -8.1727 F   0  0  0  0  0  0  0  0  0  0  0  0
    2.0367   -0.7718   -8.4864 C   0  0  1  0  0  0  0  0  0  0  0  0
    2.0850   -0.5783   -7.0428 O   0  0  0  0  0  0  0  0  0  0  0  0
    1.1807   -1.8091   -8.9500 O   0  0  0  0  0  0  0  0  0  0  0  0
    2.5010   -2.0786   -8.9504 C   0  0  0  0  0  0  0  0  0  0  0  0
    3.1193   -2.9254   -8.3340 O   0  0  0  0  0  0  0  0  0  0  0  0
    0.1547    3.3448   -7.9616 F   0  0  0  0  0  0  0  0  0  0  0  0
    2.1874    1.2330   -1.9805 C   0  0  0  0  0  0  0  0  0  0  0  0
    3.3668    0.9132   -2.0170 O   0  0  0  0  0  0  0  0  0  0  0  0
    1.1080    0.2681   -1.5978 C   0  0  0  0  0  0  0  0  0  0  0  0
    1.2765   -0.4811   -0.6520 O   0  0  0  0  0  0  0  0  0  0  0  0
   -0.2162    0.3583   -2.3167 C   0  0  0  0  0  0  0  0  0  0  0  0
   -0.9986   -0.5742   -2.3377 O   0  0  0  0  0  0  0  0  0  0  0  0
  1  2  1  0  0  0  0
  2  3  2  0  0  0  0
  3  4  1  0  0  0  0
  3 53  1  0  0  0  0
  4  5  1  0  0  0  0
  5  6  1  6  0  0  0
  5 49  1  0  0  0  0
  6  7  1  0  0  0  0
  7  8  2  0  0  0  0
  7 12  1  0  0  0  0
  8  9  1  0  0  0  0
  8 26  1  0  0  0  0
  9 10  1  0  0  0  0
 10 11  2  0  0  0  0
 10 21  1  0  0  0  0
 11 12  1  0  0  0  0
 11 13  1  0  0  0  0
 13 14  1  0  0  0  0
 13 19  1  0  0  0  0
 14 15  1  0  0  0  0
 15 16  2  0  0  0  0
 15 17  1  0  0  0  0
 17 18  1  0  0  0  0
 18 19  1  0  0  0  0
 18 25  1  0  0  0  0
 19 20  2  0  0  0  0
 20 21  1  0  0  0  0
 20 22  1  0  0  0  0
 22 23  1  0  0  0  0
 22 24  1  0  0  0  0
 23 24  1  0  0  0  0
 26 27  2  0  0  0  0
 26 32  1  0  0  0  0
 27 28  1  0  0  0  0
 28 29  1  0  0  0  0
 28 30  2  0  0  0  0
 30 31  1  0  0  0  0
 31 32  2  0  0  0  0
 31 41  1  0  0  0  0
 32 33  1  0  0  0  0
 33 34  2  0  0  0  0
 34 35  1  0  0  0  0
 34 40  1  0  0  0  0
 35 36  2  0  0  0  0
 35 48  1  0  0  0  0
 36 37  1  0  0  0  0
 38 36  1  1  0  0  0
 38 39  1  0  0  0  0
 38 43  1  0  0  0  0
 39 40  1  0  0  0  0
 40 41  2  0  0  0  0
 41 42  1  0  0  0  0
 43 44  1  1  0  0  0
 43 45  1  0  0  0  0
 43 46  1  0  0  0  0
 45 46  1  0  0  0  0
 46 47  2  0  0  0  0
 49 50  2  0  0  0  0
 49 51  1  0  0  0  0
 51 52  2  0  0  0  0
 51 53  1  0  0  0  0
 53 54  2  0  0  0  0
M  CHG  2  21   1  28   1
M  END
$$$$