
 OpenBabel05092107303D

 49 59  0  0  1  0  0  0  0  0999 V2000
    3.2956    1.9265   -1.7729 F   0  0  0  0  0  0  0  0  0  0  0  0
    4.3833    1.2569   -2.1779 C   0  0  0  0  0  0  0  0  0  0  0  0
    5.2327    1.8374   -3.1040 C   0  0  0  0  0  0  0  0  0  0  0  0
    6.3352    1.1169   -3.5411 C   0  0  0  0  0  0  0  0  0  0  0  0
    6.5641   -0.1823   -3.0592 C   0  0  0  0  0  0  0  0  0  0  0  0
    5.7431   -0.7818   -2.0812 C   0  0  0  0  0  0  0  0  0  0  0  0
    4.6352   -0.0158   -1.6606 C   0  0  0  0  0  0  0  0  0  0  0  0
    5.9780   -2.1653   -1.5468 C   0  0  0  0  0  0  0  0  0  0  0  0
    4.8671   -2.9601   -1.2067 C   0  0  0  0  0  0  0  0  0  0  0  0
    4.9858   -4.2827   -0.7490 C   0  0  0  0  0  0  0  0  0  0  0  0
    6.2267   -4.9250   -0.6323 C   0  0  0  0  0  0  0  0  0  0  0  0
    7.3789   -4.1611   -0.9628 C   0  0  0  0  0  0  0  0  0  0  0  0
    7.2337   -2.7990   -1.3845 C   0  0  0  0  0  0  0  0  0  0  0  0
    8.5223   -2.0990   -1.6342 C   0  0  0  0  0  0  0  0  0  0  0  0
    8.7279   -0.9457   -1.2644 O   0  0  0  0  0  0  0  0  0  0  0  0
    9.6027   -2.9404   -2.3310 C   0  0  1  0  0  0  0  0  0  0  0  0
    9.9043   -4.0854   -1.3649 C   0  0  2  0  0  0  0  0  0  0  0  0
    8.6458   -4.7914   -0.9010 C   0  0  0  0  0  0  0  0  0  0  0  0
    8.7620   -6.1089   -0.4829 C   0  0  0  0  0  0  0  0  0  0  0  0
    7.6303   -6.8274   -0.1295 C   0  0  0  0  0  0  0  0  0  0  0  0
    6.3281   -6.2970   -0.2259 C   0  0  0  0  0  0  0  0  0  0  0  0
    5.0328   -7.2346    0.0235 C   0  0  0  0  0  0  0  0  0  0  0  0
    4.5205   -7.2263    1.7332 C   0  0  0  0  0  0  0  0  0  0  0  0
    4.9453   -8.3454    1.3970 C   0  0  0  0  0  0  0  0  0  0  0  0
    5.4333   -8.9461    0.4046 C   0  0  0  0  0  0  0  0  0  0  0  0
    9.9274   -6.8119   -0.4573 O   0  0  0  0  0  0  0  0  0  0  0  0
   11.0770   -6.2614   -1.1082 C   0  0  2  0  0  0  0  0  0  0  0  0
   10.8161   -5.0904   -2.0613 C   0  0  1  0  0  0  0  0  0  0  0  0
   10.1789   -5.4993   -3.3692 C   0  0  0  0  0  0  0  0  0  0  0  0
    9.3976   -4.5724   -4.0690 C   0  0  0  0  0  0  0  0  0  0  0  0
    9.0998   -3.3188   -3.6141 O   0  0  0  0  0  0  0  0  0  0  0  0
    8.7972   -4.9329   -5.2700 C   0  0  0  0  0  0  0  0  0  0  0  0
    8.9348   -6.2303   -5.7552 C   0  0  0  0  0  0  0  0  0  0  0  0
    9.6676   -7.1851   -5.0393 C   0  0  0  0  0  0  0  0  0  0  0  0
   10.3193   -6.8217   -3.8465 C   0  0  0  0  0  0  0  0  0  0  0  0
   11.0374   -7.8159   -3.1557 C   0  0  0  0  0  0  0  0  0  0  0  0
   11.6840   -7.4523   -1.8725 C   0  0  0  0  0  0  0  0  0  0  0  0
   12.6246   -8.1112   -1.4301 O   0  0  0  0  0  0  0  0  0  0  0  0
   11.0881   -9.1446   -3.6142 C   0  0  0  0  0  0  0  0  0  0  0  0
   10.4115   -9.5080   -4.7816 C   0  0  0  0  0  0  0  0  0  0  0  0
    9.7091   -8.5160   -5.4748 C   0  0  0  0  0  0  0  0  0  0  0  0
   10.1986  -11.2399   -5.2105 S   0  3  0  0  0  0  0  0  0  0  0  0
   11.8807  -11.8888   -5.2884 C   0  0  0  0  0  0  0  0  0  0  0  0
   12.8039  -11.2222   -6.2933 C   0  0  0  0  0  0  0  0  0  0  0  0
   12.2771  -11.2670   -7.7229 C   0  0  0  0  0  0  0  0  0  0  0  0
   10.9284  -10.5764   -7.8523 C   0  0  0  0  0  0  0  0  0  0  0  0
    9.8602  -11.2272   -6.9878 C   0  0  0  0  0  0  0  0  0  0  0  0
   11.9982   -5.8267   -0.1060 O   0  0  0  0  0  0  0  0  0  0  0  0
   10.7835   -2.1606   -2.5142 O   0  0  0  0  0  0  0  0  0  0  0  0
  1  2  1  0  0  0  0
  2  3  2  0  0  0  0
  2  7  1  0  0  0  0
  3  4  1  0  0  0  0
  4  5  2  0  0  0  0
  5  6  1  0  0  0  0
  6  7  2  0  0  0  0
  6  8  1  0  0  0  0
  8  9  2  0  0  0  0
  8 13  1  0  0  0  0
  9 10  1  0  0  0  0
 10 11  2  0  0  0  0
 11 12  1  0  0  0  0
 11 21  1  0  0  0  0
 12 13  2  0  0  0  0
 12 18  1  0  0  0  0
 13 14  1  0  0  0  0
 14 16  1  0  0  0  0
 14 15  2  0  0  0  0
 16 17  1  0  0  0  0
 16 31  1  0  0  0  0
 16 49  1  6  0  0  0
 17 18  1  1  0  0  0
 17 28  1  0  0  0  0
 18 19  2  0  0  0  0
 19 20  1  0  0  0  0
 19 26  1  0  0  0  0
 20 21  2  0  0  0  0
 21 22  1  0  0  0  0
 22 23  1  0  0  0  0
 22 25  1  0  0  0  0
 23 24  2  0  0  0  0
 24 25  2  0  0  0  0
 26 27  1  0  0  0  0
 27 28  1  0  0  0  0
 27 37  1  0  0  0  0
 27 48  1  1  0  0  0
 28 29  1  6  0  0  0
 29 30  2  0  0  0  0
 29 35  1  0  0  0  0
 30 31  1  0  0  0  0
 30 32  1  0  0  0  0
 32 33  2  0  0  0  0
 33 34  1  0  0  0  0
 34 35  2  0  0  0  0
 34 41  1  0  0  0  0
 35 36  1  0  0  0  0
 36 37  1  0  0  0  0
 36 39  2  0  0  0  0
 37 38  2  0  0  0  0
 39 40  1  0  0  0  0
 40 41  2  0  0  0  0
 40 42  1  0  0  0  0
 42 43  1  0  0  0  0
 42 47  1  0  0  0  0
 43 44  1  0  0  0  0
 44 45  1  0  0  0  0
 45 46  1  0  0  0  0
 46 47  1  0  0  0  0
M  CHG  1  42   1
M  END
$$$$