
 OpenBabel11262017423D

 55 63  0  0  1  0  0  0  0  0999 V2000
    3.6200    6.1814    5.5391 O   0  0  0  0  0  0  0  0  0  0  0  0
    3.3561    6.3318    4.1987 C   0  0  0  0  0  0  0  0  0  0  0  0
    3.1329    5.3054    3.3673 C   0  0  0  0  0  0  0  0  0  0  0  0
    3.2046    3.9845    3.7798 O   0  0  0  0  0  0  0  0  0  0  0  0
    1.9856    3.2907    3.5029 C   0  0  2  0  0  0  0  0  0  0  0  0
    2.0102    1.9408    4.0396 O   0  0  0  0  0  0  0  0  0  0  0  0
    2.1278    1.7819    5.4159 C   0  0  0  0  0  0  0  0  0  0  0  0
    2.2389    0.5538    5.9707 C   0  0  0  0  0  0  0  0  0  0  0  0
    2.4460    0.3627    7.3470 O   0  0  0  0  0  0  0  0  0  0  0  0
    2.7069    1.4733    8.1656 C   0  0  0  0  0  0  0  0  0  0  0  0
    2.5497    2.7239    7.7006 C   0  0  0  0  0  0  0  0  0  0  0  0
    2.0989    2.9995    6.3060 C   0  0  0  0  0  0  0  0  0  0  0  0
    2.8729    3.9429    8.5188 C   0  0  3  0  0  0  0  0  0  0  0  0
    1.6741    4.6615    8.7319 O   0  0  0  0  0  0  0  0  0  0  0  0
    1.7741    5.8053    9.4647 C   0  0  0  0  0  0  0  0  0  0  0  0
    0.8987    6.6536    9.4479 O   0  0  0  0  0  0  0  0  0  0  0  0
    2.9143    5.9443   10.1860 O   0  0  0  0  0  0  0  0  0  0  0  0
    3.6952    4.8308   10.6080 C   0  0  3  0  0  0  0  0  0  0  0  0
    3.3797    3.5862    9.8585 C   0  0  0  0  0  0  0  0  0  0  0  0
    3.5016    2.3095   10.2834 C   0  0  0  0  0  0  0  0  0  0  0  0
    3.1350    1.2529    9.4571 O   0  3  0  0  0  0  0  0  0  0  0  0
    4.0106    1.9395   11.6231 C   0  0  0  0  0  0  0  0  0  0  0  0
    3.1197    1.7750   12.7316 O   0  0  0  0  0  0  0  0  0  0  0  0
    3.7661    0.6247   12.1522 O   0  0  0  0  0  0  0  0  0  0  0  0
    5.0519    5.0944   10.3034 O   0  0  0  0  0  0  0  0  0  0  0  0
    2.1095   -0.7036    5.1867 C   0  0  0  0  0  0  0  0  0  0  0  0
    0.8686   -1.3572    4.9820 C   0  0  0  0  0  0  0  0  0  0  0  0
   -0.3780   -0.8714    5.4431 C   0  0  0  0  0  0  0  0  0  0  0  0
   -1.5658   -1.5944    5.2367 C   0  0  0  0  0  0  0  0  0  0  0  0
   -2.8343   -1.0757    5.7473 C   0  0  0  0  0  0  0  0  0  0  0  0
   -2.8742   -0.0018    6.3257 O   0  0  0  0  0  0  0  0  0  0  0  0
   -4.0573   -1.9472    5.5931 C   0  0  0  0  0  0  0  0  0  0  0  0
   -5.1642   -1.5213    5.8900 O   0  0  0  0  0  0  0  0  0  0  0  0
   -3.7721   -3.3941    5.2650 C   0  0  1  0  0  0  0  0  0  0  0  0
   -2.6363   -3.6113    4.4118 O   0  0  0  0  0  0  0  0  0  0  0  0
   -1.5443   -2.8117    4.5855 C   0  0  0  0  0  0  0  0  0  0  0  0
   -0.3195   -3.2718    4.0969 C   0  0  0  0  0  0  0  0  0  0  0  0
    0.8814   -2.5761    4.2749 C   0  0  0  0  0  0  0  0  0  0  0  0
    2.0145   -3.0863    3.7843 N   0  0  0  0  0  0  0  0  0  0  0  0
    3.1543   -2.4392    3.9499 N   0  3  0  0  0  0  0  0  0  0  0  0
    3.2462   -1.2873    4.6281 C   0  0  0  0  0  0  0  0  0  0  0  0
    4.4485   -0.7192    4.8054 F   0  0  0  0  0  0  0  0  0  0  0  0
    4.2763   -2.9812    3.4409 F   0  0  0  0  0  0  0  0  0  0  0  0
   -0.2823   -4.4515    3.4562 F   0  0  0  0  0  0  0  0  0  0  0  0
   -3.7272   -4.2049    6.5424 C   0  0  1  0  0  0  0  0  0  0  0  0
   -4.9240   -4.2212    7.3523 O   0  0  0  0  0  0  0  0  0  0  0  0
   -3.0387   -5.4632    6.4460 O   0  0  0  0  0  0  0  0  0  0  0  0
   -2.4957   -4.5352    7.2378 C   0  0  0  0  0  0  0  0  0  0  0  0
   -1.3985   -3.9942    7.2304 O   0  0  0  0  0  0  0  0  0  0  0  0
    1.7313    3.1982    2.0044 C   0  0  0  0  0  0  0  0  0  0  0  0
    1.0277    2.3500    1.4746 O   0  0  0  0  0  0  0  0  0  0  0  0
    2.3990    4.3054    1.2133 C   0  0  0  0  0  0  0  0  0  0  0  0
    2.6912    4.1386    0.0427 O   0  0  0  0  0  0  0  0  0  0  0  0
    2.7755    5.5782    1.9489 C   0  0  0  0  0  0  0  0  0  0  0  0
    2.7088    6.6817    1.4449 O   0  0  0  0  0  0  0  0  0  0  0  0
  1  2  1  0  0  0  0
  2  3  2  0  0  0  0
  3  4  1  0  0  0  0
  3 54  1  0  0  0  0
  4  5  1  0  0  0  0
  5  6  1  6  0  0  0
  5 50  1  0  0  0  0
  6  7  1  0  0  0  0
  7  8  2  0  0  0  0
  7 12  1  0  0  0  0
  8  9  1  0  0  0  0
  8 26  1  0  0  0  0
  9 10  1  0  0  0  0
 10 11  2  0  0  0  0
 10 21  1  0  0  0  0
 11 12  1  0  0  0  0
 11 13  1  0  0  0  0
 13 14  1  0  0  0  0
 13 19  1  0  0  0  0
 14 15  1  0  0  0  0
 15 16  2  0  0  0  0
 15 17  1  0  0  0  0
 17 18  1  0  0  0  0
 18 19  1  0  0  0  0
 18 25  1  0  0  0  0
 19 20  2  0  0  0  0
 20 21  1  0  0  0  0
 20 22  1  0  0  0  0
 22 23  1  0  0  0  0
 22 24  1  0  0  0  0
 23 24  1  0  0  0  0
 26 27  2  0  0  0  0
 26 41  1  0  0  0  0
 27 28  1  0  0  0  0
 27 38  1  0  0  0  0
 28 29  2  0  0  0  0
 29 30  1  0  0  0  0
 29 36  1  0  0  0  0
 30 31  2  0  0  0  0
 30 32  1  0  0  0  0
 32 33  2  0  0  0  0
 34 32  1  1  0  0  0
 34 35  1  0  0  0  0
 34 45  1  0  0  0  0
 35 36  1  0  0  0  0
 36 37  2  0  0  0  0
 37 38  1  0  0  0  0
 37 44  1  0  0  0  0
 38 39  2  0  0  0  0
 39 40  1  0  0  0  0
 40 41  2  0  0  0  0
 40 43  1  0  0  0  0
 41 42  1  0  0  0  0
 45 46  1  1  0  0  0
 45 47  1  0  0  0  0
 45 48  1  0  0  0  0
 47 48  1  0  0  0  0
 48 49  2  0  0  0  0
 50 51  2  0  0  0  0
 50 52  1  0  0  0  0
 52 53  2  0  0  0  0
 52 54  1  0  0  0  0
 54 55  2  0  0  0  0
M  CHG  2  21   1  40   1
M  END
$$$$