
 OpenBabel09232009293D

 51 59  0  0  1  0  0  0  0  0999 V2000
   -0.2752    4.0785    3.1547 F   0  0  0  0  0  0  0  0  0  0  0  0
    0.3252    2.8772    3.0539 C   0  0  0  0  0  0  0  0  0  0  0  0
    0.9843    2.5227    1.9489 C   0  0  0  0  0  0  0  0  0  0  0  0
    1.0488    3.3865    0.8683 O   0  0  0  0  0  0  0  0  0  0  0  0
    2.1908    3.2183    0.0355 C   0  0  2  0  0  0  0  0  0  0  0  0
    2.1783    4.1589   -1.0520 O   0  0  0  0  0  0  0  0  0  0  0  0
    2.2657    5.4988   -0.7049 C   0  0  0  0  0  0  0  0  0  0  0  0
    1.7000    6.4406   -1.4804 C   0  0  0  0  0  0  0  0  0  0  0  0
    1.8086    7.7995   -1.2552 O   0  0  0  0  0  0  0  0  0  0  0  0
    2.5808    8.2432   -0.2044 C   0  0  0  0  0  0  0  0  0  0  0  0
    3.2313    7.3758    0.6542 C   0  0  0  0  0  0  0  0  0  0  0  0
    3.0777    5.8981    0.4980 C   0  0  0  0  0  0  0  0  0  0  0  0
    4.0087    7.9467    1.6615 C   0  0  0  0  0  0  0  0  0  0  0  0
    4.7249    7.1437    2.5569 N   0  0  0  0  0  0  0  0  0  0  0  0
    5.4633    7.6095    3.5971 C   0  0  0  0  0  0  0  0  0  0  0  0
    6.0443    6.8367    4.3500 O   0  0  0  0  0  0  0  0  0  0  0  0
    5.5115    8.9470    3.7686 N   0  0  0  0  0  0  0  0  0  0  0  0
    4.9848    9.9165    2.8468 C   0  0  0  0  0  0  0  0  0  0  0  0
    4.0974    9.3336    1.7898 C   0  0  0  0  0  0  0  0  0  0  0  0
    3.3989   10.1427    0.8838 C   0  0  0  0  0  0  0  0  0  0  0  0
    2.6664    9.5828   -0.1210 N   0  0  0  0  0  0  0  0  0  0  0  0
    3.4464   11.6525    0.9392 C   0  0  0  0  0  0  0  0  0  0  0  0
    2.1974   12.3338    1.1410 O   0  0  0  0  0  0  0  0  0  0  0  0
    3.1837   12.3113    2.1877 O   0  0  0  0  0  0  0  0  0  0  0  0
    0.9091    6.1093   -2.6787 C   0  0  0  0  0  0  0  0  0  0  0  0
   -0.4004    5.8900   -2.4433 N   0  0  0  0  0  0  0  0  0  0  0  0
   -1.1439    5.6463   -3.5136 C   0  0  0  0  0  0  0  0  0  0  0  0
   -0.6850    5.6029   -4.7614 N   0  0  0  0  0  0  0  0  0  0  0  0
    0.6197    5.8270   -4.9334 C   0  0  0  0  0  0  0  0  0  0  0  0
    1.4878    6.0907   -3.9057 N   0  3  0  0  0  0  0  0  0  0  0  0
    2.8047    6.3080   -4.1476 C   0  0  0  0  0  0  0  0  0  0  0  0
    3.3036    6.2931   -5.4441 C   0  0  0  0  0  0  0  0  0  0  0  0
    2.4556    6.0635   -6.5026 C   0  0  0  0  0  0  0  0  0  0  0  0
    1.1176    5.8067   -6.2343 C   0  0  0  0  0  0  0  0  0  0  0  0
    2.8470    6.0673   -7.8090 O   0  0  0  0  0  0  0  0  0  0  0  0
    4.0463    6.8065   -8.1151 C   0  0  2  0  0  0  0  0  0  0  0  0
    5.1737    6.5986   -7.1256 C   0  0  0  0  0  0  0  0  0  0  0  0
    6.3584    6.5478   -7.4146 O   0  0  0  0  0  0  0  0  0  0  0  0
    4.7247    6.5120   -5.6823 C   0  0  0  0  0  0  0  0  0  0  0  0
    5.4870    6.5994   -4.7351 O   0  0  0  0  0  0  0  0  0  0  0  0
    3.7297    8.2616   -8.2640 C   0  0  3  0  0  0  0  0  0  0  0  0
    3.1340    8.9177   -7.1107 O   0  0  0  0  0  0  0  0  0  0  0  0
    4.6954    9.0244   -8.9777 O   0  0  0  0  0  0  0  0  0  0  0  0
    3.4863    8.9057   -9.5541 C   0  0  0  0  0  0  0  0  0  0  0  0
    2.6603    9.7581   -9.8220 O   0  0  0  0  0  0  0  0  0  0  0  0
    2.2019    1.8155   -0.5279 C   0  0  0  0  0  0  0  0  0  0  0  0
    2.2179    1.5152   -1.7116 O   0  0  0  0  0  0  0  0  0  0  0  0
    2.2203    0.7926    0.5773 C   0  0  0  0  0  0  0  0  0  0  0  0
    2.7930   -0.2705    0.4102 O   0  0  0  0  0  0  0  0  0  0  0  0
    1.6103    1.1688    1.9181 C   0  0  0  0  0  0  0  0  0  0  0  0
    1.6755    0.4315    2.8861 O   0  0  0  0  0  0  0  0  0  0  0  0
  1  2  1  0  0  0  0
  2  3  2  0  0  0  0
  3  4  1  0  0  0  0
  3 50  1  0  0  0  0
  4  5  1  0  0  0  0
  5  6  1  6  0  0  0
  5 46  1  0  0  0  0
  6  7  1  0  0  0  0
  7  8  2  0  0  0  0
  7 12  1  0  0  0  0
  8  9  1  0  0  0  0
  8 25  1  0  0  0  0
  9 10  1  0  0  0  0
 10 11  2  0  0  0  0
 10 21  1  0  0  0  0
 11 12  1  0  0  0  0
 11 13  1  0  0  0  0
 13 14  1  0  0  0  0
 13 19  2  0  0  0  0
 14 15  1  0  0  0  0
 15 16  2  0  0  0  0
 15 17  1  0  0  0  0
 17 18  1  0  0  0  0
 18 19  1  0  0  0  0
 19 20  1  0  0  0  0
 20 21  2  0  0  0  0
 20 22  1  0  0  0  0
 22 23  1  0  0  0  0
 22 24  1  0  0  0  0
 23 24  1  0  0  0  0
 25 26  2  0  0  0  0
 25 30  1  0  0  0  0
 26 27  1  0  0  0  0
 27 28  2  0  0  0  0
 28 29  1  0  0  0  0
 29 30  2  0  0  0  0
 29 34  1  0  0  0  0
 30 31  1  0  0  0  0
 31 32  2  0  0  0  0
 32 33  1  0  0  0  0
 32 39  1  0  0  0  0
 33 34  2  0  0  0  0
 33 35  1  0  0  0  0
 36 35  1  1  0  0  0
 36 37  1  0  0  0  0
 36 41  1  0  0  0  0
 37 38  2  0  0  0  0
 37 39  1  0  0  0  0
 39 40  2  0  0  0  0
 41 42  1  0  0  0  0
 41 43  1  0  0  0  0
 41 44  1  0  0  0  0
 43 44  1  0  0  0  0
 44 45  2  0  0  0  0
 46 47  2  0  0  0  0
 46 48  1  0  0  0  0
 48 49  2  0  0  0  0
 48 50  1  0  0  0  0
 50 51  2  0  0  0  0
M  CHG  1  30   1
M  END
$$$$