
 OpenBabel11212014173D

 52 60  0  0  1  0  0  0  0  0999 V2000
    2.6717    1.5715    6.2541 O   0  0  0  0  0  0  0  0  0  0  0  0
    3.8375    0.8855    6.4616 C   0  0  0  0  0  0  0  0  0  0  0  0
    4.0425   -0.3611    6.0175 C   0  0  0  0  0  0  0  0  0  0  0  0
    3.0522   -1.0949    5.3897 O   0  0  0  0  0  0  0  0  0  0  0  0
    3.4575   -1.8036    4.2191 C   0  0  2  0  0  0  0  0  0  0  0  0
    2.3731   -2.6518    3.7643 O   0  0  0  0  0  0  0  0  0  0  0  0
    2.2024   -3.9103    4.3279 C   0  0  0  0  0  0  0  0  0  0  0  0
    1.7231   -4.9521    3.6091 C   0  0  0  0  0  0  0  0  0  0  0  0
    1.6846   -6.2575    4.1182 O   0  0  0  0  0  0  0  0  0  0  0  0
    2.4574   -6.5575    5.2368 C   0  0  0  0  0  0  0  0  0  0  0  0
    2.9144   -5.5789    6.0377 C   0  0  0  0  0  0  0  0  0  0  0  0
    2.5671   -4.1436    5.7740 C   0  0  0  0  0  0  0  0  0  0  0  0
    3.8323   -5.8565    7.1895 C   0  0  3  0  0  0  0  0  0  0  0  0
    3.2250   -5.3548    8.3633 O   0  0  0  0  0  0  0  0  0  0  0  0
    3.9989   -5.4206    9.4803 C   0  0  0  0  0  0  0  0  0  0  0  0
    3.8444   -4.6578   10.4186 O   0  0  0  0  0  0  0  0  0  0  0  0
    4.9548   -6.3855    9.4566 O   0  0  0  0  0  0  0  0  0  0  0  0
    4.8198   -7.5639    8.6449 C   0  0  0  0  0  0  0  0  0  0  0  0
    4.0300   -7.3125    7.4026 C   0  0  0  0  0  0  0  0  0  0  0  0
    3.4935   -8.2523    6.5893 C   0  0  0  0  0  0  0  0  0  0  0  0
    2.7370   -7.8780    5.4863 O   0  3  0  0  0  0  0  0  0  0  0  0
    3.6374   -9.7087    6.8231 C   0  0  0  0  0  0  0  0  0  0  0  0
    2.6703  -10.4277    7.6006 O   0  0  0  0  0  0  0  0  0  0  0  0
    2.7588  -10.6473    6.1795 O   0  0  0  0  0  0  0  0  0  0  0  0
    1.2661   -4.8703    2.2060 C   0  0  0  0  0  0  0  0  0  0  0  0
    2.2503   -5.0996    1.3121 N   0  0  0  0  0  0  0  0  0  0  0  0
    1.8765   -5.1203    0.0307 C   0  0  0  0  0  0  0  0  0  0  0  0
    0.6261   -4.9890   -0.4197 N   0  0  0  0  0  0  0  0  0  0  0  0
   -0.3569   -4.7955    0.4738 C   0  0  0  0  0  0  0  0  0  0  0  0
   -0.0905   -4.7112    1.8493 C   0  0  0  0  0  0  0  0  0  0  0  0
   -1.1667   -4.5094    2.7531 C   0  0  0  0  0  0  0  0  0  0  0  0
   -2.4893   -4.4286    2.2933 C   0  0  0  0  0  0  0  0  0  0  0  0
   -3.5901   -4.2380    3.2431 C   0  0  0  0  0  0  0  0  0  0  0  0
   -3.3734   -4.0851    4.4350 O   0  0  0  0  0  0  0  0  0  0  0  0
   -4.9956   -4.2508    2.6845 C   0  0  0  0  0  0  0  0  0  0  0  0
   -5.9482   -3.9177    3.3749 O   0  0  0  0  0  0  0  0  0  0  0  0
   -5.1102   -4.7773    1.2709 C   0  0  1  0  0  0  0  0  0  0  0  0
   -4.0178   -4.4755    0.3944 O   0  0  0  0  0  0  0  0  0  0  0  0
   -2.7640   -4.5335    0.9421 C   0  0  0  0  0  0  0  0  0  0  0  0
   -1.6950   -4.6969    0.0531 C   0  0  0  0  0  0  0  0  0  0  0  0
   -1.9763   -4.7987   -1.2936 O   0  0  0  0  0  0  0  0  0  0  0  0
   -5.3667   -6.2503    1.2733 C   0  0  1  0  0  0  0  0  0  0  0  0
   -4.3467   -7.0835    1.8815 O   0  0  0  0  0  0  0  0  0  0  0  0
   -6.7167   -6.6366    1.5128 O   0  0  0  0  0  0  0  0  0  0  0  0
   -6.2209   -6.9225    0.2941 C   0  0  0  0  0  0  0  0  0  0  0  0
   -6.0579   -7.9969   -0.2480 O   0  0  0  0  0  0  0  0  0  0  0  0
    4.8024   -2.5472    4.3015 C   0  0  0  0  0  0  0  0  0  0  0  0
    5.1982   -3.4054    3.5211 O   0  0  0  0  0  0  0  0  0  0  0  0
    5.5720   -2.2750    5.5669 C   0  0  0  0  0  0  0  0  0  0  0  0
    6.2246   -3.1784    6.0661 O   0  0  0  0  0  0  0  0  0  0  0  0
    5.3636   -0.9757    6.2990 C   0  0  0  0  0  0  0  0  0  0  0  0
    6.2110   -0.5191    7.0441 O   0  0  0  0  0  0  0  0  0  0  0  0
  1  2  1  0  0  0  0
  2  3  2  0  0  0  0
  3  4  1  0  0  0  0
  3 51  1  0  0  0  0
  4  5  1  0  0  0  0
  5  6  1  1  0  0  0
  5 47  1  0  0  0  0
  6  7  1  0  0  0  0
  7  8  2  0  0  0  0
  7 12  1  0  0  0  0
  8  9  1  0  0  0  0
  8 25  1  0  0  0  0
  9 10  1  0  0  0  0
 10 11  2  0  0  0  0
 10 21  1  0  0  0  0
 11 12  1  0  0  0  0
 11 13  1  0  0  0  0
 13 14  1  0  0  0  0
 13 19  1  0  0  0  0
 14 15  1  0  0  0  0
 15 16  2  0  0  0  0
 15 17  1  0  0  0  0
 17 18  1  0  0  0  0
 18 19  1  0  0  0  0
 19 20  2  0  0  0  0
 20 21  1  0  0  0  0
 20 22  1  0  0  0  0
 22 23  1  0  0  0  0
 22 24  1  0  0  0  0
 23 24  1  0  0  0  0
 25 26  2  0  0  0  0
 25 30  1  0  0  0  0
 26 27  1  0  0  0  0
 27 28  2  0  0  0  0
 28 29  1  0  0  0  0
 29 30  2  0  0  0  0
 29 40  1  0  0  0  0
 30 31  1  0  0  0  0
 31 32  2  0  0  0  0
 32 33  1  0  0  0  0
 32 39  1  0  0  0  0
 33 34  2  0  0  0  0
 33 35  1  0  0  0  0
 35 36  2  0  0  0  0
 37 35  1  1  0  0  0
 37 38  1  0  0  0  0
 37 42  1  0  0  0  0
 38 39  1  0  0  0  0
 39 40  2  0  0  0  0
 40 41  1  0  0  0  0
 42 43  1  1  0  0  0
 42 44  1  0  0  0  0
 42 45  1  0  0  0  0
 44 45  1  0  0  0  0
 45 46  2  0  0  0  0
 47 48  2  0  0  0  0
 47 49  1  0  0  0  0
 49 50  2  0  0  0  0
 49 51  1  0  0  0  0
 51 52  2  0  0  0  0
M  CHG  1  21   1
M  END
$$$$