
 OpenBabel11212017343D

 54 62  0  0  1  0  0  0  0  0999 V2000
    7.2077   -3.3722    2.0356 O   0  0  0  0  0  0  0  0  0  0  0  0
    6.9155   -2.0380    2.1825 C   0  0  0  0  0  0  0  0  0  0  0  0
    5.6752   -1.5975    2.4209 C   0  0  0  0  0  0  0  0  0  0  0  0
    4.6287   -2.5062    2.5060 O   0  0  0  0  0  0  0  0  0  0  0  0
    3.5334   -2.0677    3.2901 C   0  0  2  0  0  0  0  0  0  0  0  0
    2.4458   -3.0111    3.2203 O   0  0  0  0  0  0  0  0  0  0  0  0
    2.6367   -4.3089    3.6428 C   0  0  0  0  0  0  0  0  0  0  0  0
    1.9276   -5.3210    3.0890 C   0  0  0  0  0  0  0  0  0  0  0  0
    2.0987   -6.6487    3.5271 O   0  0  0  0  0  0  0  0  0  0  0  0
    2.9346   -6.9312    4.6278 C   0  0  0  0  0  0  0  0  0  0  0  0
    3.5866   -5.9477    5.2755 C   0  0  0  0  0  0  0  0  0  0  0  0
    3.5639   -4.5269    4.8082 C   0  0  0  0  0  0  0  0  0  0  0  0
    4.3995   -6.2010    6.5195 C   0  0  3  0  0  0  0  0  0  0  0  0
    3.7227   -5.5529    7.5817 O   0  0  0  0  0  0  0  0  0  0  0  0
    4.1701   -5.7413    8.8540 C   0  0  0  0  0  0  0  0  0  0  0  0
    3.7640   -5.0442    9.7685 O   0  0  0  0  0  0  0  0  0  0  0  0
    5.0470   -6.7559    9.0394 O   0  0  0  0  0  0  0  0  0  0  0  0
    5.2802   -7.7956    8.0953 C   0  0  3  0  0  0  0  0  0  0  0  0
    4.4500   -7.6369    6.8706 C   0  0  0  0  0  0  0  0  0  0  0  0
    3.8198   -8.5911    6.1515 C   0  0  0  0  0  0  0  0  0  0  0  0
    3.0567   -8.2442    5.0403 O   0  3  0  0  0  0  0  0  0  0  0  0
    3.8995  -10.0471    6.4274 C   0  0  0  0  0  0  0  0  0  0  0  0
    3.1919  -10.9745    5.5812 O   0  0  0  0  0  0  0  0  0  0  0  0
    4.6295  -10.9118    5.5470 O   0  0  0  0  0  0  0  0  0  0  0  0
    6.6188   -7.7340    7.6526 O   0  0  0  0  0  0  0  0  0  0  0  0
    0.9010   -5.0830    1.9911 C   0  0  0  0  0  0  0  0  0  0  0  0
    0.1531   -3.8930    2.0343 C   0  0  0  0  0  0  0  0  0  0  0  0
   -0.7095   -3.5674    1.0664 N   0  3  0  0  0  0  0  0  0  0  0  0
   -1.3337   -2.3720    1.1272 F   0  0  0  0  0  0  0  0  0  0  0  0
   -0.9844   -4.3749    0.0529 N   0  0  0  0  0  0  0  0  0  0  0  0
   -0.3693   -5.5751   -0.0428 C   0  0  0  0  0  0  0  0  0  0  0  0
    0.6123   -5.9716    0.9113 C   0  0  0  0  0  0  0  0  0  0  0  0
    1.2232   -7.2299    0.7213 C   0  0  0  0  0  0  0  0  0  0  0  0
    0.8234   -8.0828   -0.3102 C   0  0  0  0  0  0  0  0  0  0  0  0
    1.3558   -9.4421   -0.4096 C   0  0  0  0  0  0  0  0  0  0  0  0
    1.9568   -9.9005    0.5469 O   0  0  0  0  0  0  0  0  0  0  0  0
    1.1260  -10.1952   -1.7093 C   0  0  0  0  0  0  0  0  0  0  0  0
    1.6857  -11.2557   -1.9203 O   0  0  0  0  0  0  0  0  0  0  0  0
    0.3408   -9.4193   -2.7486 C   0  0  1  0  0  0  0  0  0  0  0  0
   -0.6314   -8.5150   -2.1652 O   0  0  0  0  0  0  0  0  0  0  0  0
   -0.1425   -7.6712   -1.2013 C   0  0  0  0  0  0  0  0  0  0  0  0
   -0.6855   -6.4491   -1.0449 N   0  3  0  0  0  0  0  0  0  0  0  0
   -1.6305   -6.0716   -1.9330 F   0  0  0  0  0  0  0  0  0  0  0  0
    1.2233   -8.6633   -3.6987 C   0  0  1  0  0  0  0  0  0  0  0  0
    0.5758   -7.5690   -4.3984 O   0  0  0  0  0  0  0  0  0  0  0  0
    2.5008   -8.3472   -3.1634 O   0  0  0  0  0  0  0  0  0  0  0  0
    2.4924   -9.1262   -4.2775 C   0  0  0  0  0  0  0  0  0  0  0  0
    2.9418   -8.8707   -5.3708 O   0  0  0  0  0  0  0  0  0  0  0  0
    2.9691   -0.8118    2.6721 C   0  0  0  0  0  0  0  0  0  0  0  0
    1.8494   -0.7119    2.1842 O   0  0  0  0  0  0  0  0  0  0  0  0
    3.9956    0.2868    2.6471 C   0  0  0  0  0  0  0  0  0  0  0  0
    3.6362    1.4421    2.7694 O   0  0  0  0  0  0  0  0  0  0  0  0
    5.4588   -0.1178    2.5382 C   0  0  0  0  0  0  0  0  0  0  0  0
    6.3582    0.7006    2.5662 O   0  0  0  0  0  0  0  0  0  0  0  0
  1  2  1  0  0  0  0
  2  3  2  0  0  0  0
  3  4  1  0  0  0  0
  3 53  1  0  0  0  0
  4  5  1  0  0  0  0
  5  6  1  6  0  0  0
  5 49  1  0  0  0  0
  6  7  1  0  0  0  0
  7  8  2  0  0  0  0
  7 12  1  0  0  0  0
  8  9  1  0  0  0  0
  8 26  1  0  0  0  0
  9 10  1  0  0  0  0
 10 11  2  0  0  0  0
 10 21  1  0  0  0  0
 11 12  1  0  0  0  0
 11 13  1  0  0  0  0
 13 14  1  0  0  0  0
 13 19  1  0  0  0  0
 14 15  1  0  0  0  0
 15 16  2  0  0  0  0
 15 17  1  0  0  0  0
 17 18  1  0  0  0  0
 18 19  1  0  0  0  0
 18 25  1  0  0  0  0
 19 20  2  0  0  0  0
 20 21  1  0  0  0  0
 20 22  1  0  0  0  0
 22 23  1  0  0  0  0
 22 24  1  0  0  0  0
 23 24  1  0  0  0  0
 26 27  2  0  0  0  0
 26 32  1  0  0  0  0
 27 28  1  0  0  0  0
 28 29  1  0  0  0  0
 28 30  2  0  0  0  0
 30 31  1  0  0  0  0
 31 32  2  0  0  0  0
 31 42  1  0  0  0  0
 32 33  1  0  0  0  0
 33 34  2  0  0  0  0
 34 35  1  0  0  0  0
 34 41  1  0  0  0  0
 35 36  2  0  0  0  0
 35 37  1  0  0  0  0
 37 38  2  0  0  0  0
 39 37  1  1  0  0  0
 39 40  1  0  0  0  0
 39 44  1  0  0  0  0
 40 41  1  0  0  0  0
 41 42  2  0  0  0  0
 42 43  1  0  0  0  0
 44 45  1  6  0  0  0
 44 46  1  0  0  0  0
 44 47  1  0  0  0  0
 46 47  1  0  0  0  0
 47 48  2  0  0  0  0
 49 50  2  0  0  0  0
 49 51  1  0  0  0  0
 51 52  2  0  0  0  0
 51 53  1  0  0  0  0
 53 54  2  0  0  0  0
M  CHG  3  21   1  28   1  42   1
M  END
$$$$