
 OpenBabel11232002263D

 53 62  0  0  1  0  0  0  0  0999 V2000
   -4.1395   -7.7889  -13.1784 O   0  0  0  0  0  0  0  0  0  0  0  0
   -5.1350   -7.8396  -12.2344 C   0  0  0  0  0  0  0  0  0  0  0  0
   -5.2057   -6.9894  -11.1978 C   0  0  0  0  0  0  0  0  0  0  0  0
   -4.2424   -6.0008  -11.0318 O   0  0  0  0  0  0  0  0  0  0  0  0
   -4.2210   -5.1835   -9.8613 C   0  0  2  0  0  0  0  0  0  0  0  0
   -2.8964   -4.7257   -9.4234 O   0  0  0  0  0  0  0  0  0  0  0  0
   -1.8987   -5.6672   -9.1901 C   0  0  0  0  0  0  0  0  0  0  0  0
   -0.8819   -5.4833   -8.3054 C   0  0  0  0  0  0  0  0  0  0  0  0
    0.1175   -6.4580   -8.1124 O   0  0  0  0  0  0  0  0  0  0  0  0
    0.1462   -7.5947   -8.9273 C   0  0  0  0  0  0  0  0  0  0  0  0
   -0.7972   -7.8228   -9.8488 C   0  0  0  0  0  0  0  0  0  0  0  0
   -1.9403   -6.9104  -10.0380 C   0  0  0  0  0  0  0  0  0  0  0  0
   -0.7644   -9.0307  -10.7443 C   0  0  3  0  0  0  0  0  0  0  0  0
   -0.7746   -8.5617  -12.1207 N   0  0  0  0  0  0  0  0  0  0  0  0
   -0.7374   -9.5010  -13.0904 C   0  0  0  0  0  0  0  0  0  0  0  0
   -1.4676   -9.4236  -14.1423 N   0  0  0  0  0  0  0  0  0  0  0  0
    0.1559  -10.4892  -12.8889 N   0  0  0  0  0  0  0  0  0  0  0  0
    0.4551  -11.0175  -11.5757 C   0  0  0  0  0  0  0  0  0  0  0  0
    0.4476   -9.8973  -10.5733 C   0  0  0  0  0  0  0  0  0  0  0  0
    1.3637   -9.6184   -9.6142 C   0  0  0  0  0  0  0  0  0  0  0  0
    1.1716   -8.4999   -8.7917 N   0  0  0  0  0  0  0  0  0  0  0  0
    2.5867  -10.4202   -9.3509 C   0  0  0  0  0  0  0  0  0  0  0  0
    3.7830   -9.8199   -8.8269 O   0  0  0  0  0  0  0  0  0  0  0  0
    3.0093  -10.7211   -8.0103 O   0  0  0  0  0  0  0  0  0  0  0  0
   -0.7467   -4.3280   -7.3665 C   0  0  0  0  0  0  0  0  0  0  0  0
   -1.3656   -4.4552   -6.1271 C   0  0  0  0  0  0  0  0  0  0  0  0
   -1.2756   -3.4873   -5.2072 N   0  3  0  0  0  0  0  0  0  0  0  0
   -1.8582   -3.6688   -4.0063 F   0  0  0  0  0  0  0  0  0  0  0  0
   -0.6363   -2.3518   -5.4196 N   0  0  0  0  0  0  0  0  0  0  0  0
   -0.0061   -2.1535   -6.5788 C   0  0  0  0  0  0  0  0  0  0  0  0
    0.0051   -3.1427   -7.5904 C   0  0  0  0  0  0  0  0  0  0  0  0
    0.7907   -2.8872   -8.7378 C   0  0  0  0  0  0  0  0  0  0  0  0
    1.4920   -1.6764   -8.8955 C   0  0  0  0  0  0  0  0  0  0  0  0
    2.3778   -1.4903  -10.0644 C   0  0  0  0  0  0  0  0  0  0  0  0
    2.5096   -2.3884  -10.8905 O   0  0  0  0  0  0  0  0  0  0  0  0
    3.1402   -0.1800  -10.1465 C   0  0  3  0  0  0  0  0  0  0  0  0
    3.4088    0.1458  -11.5084 O   0  0  0  0  0  0  0  0  0  0  0  0
    2.3383    0.8722   -9.4552 C   0  0  2  0  0  0  0  0  0  0  0  0
    1.9883    0.5640   -8.0830 O   0  0  0  0  0  0  0  0  0  0  0  0
    1.3896   -0.6688   -7.9443 C   0  0  0  0  0  0  0  0  0  0  0  0
    0.6654   -0.9380   -6.7850 C   0  0  0  0  0  0  0  0  0  0  0  0
    0.6137   -0.0027   -5.8203 F   0  0  0  0  0  0  0  0  0  0  0  0
    1.2417    1.4318  -10.2610 O   0  0  0  0  0  0  0  0  0  0  0  0
    2.3638    2.2222   -9.9247 C   0  0  1  0  0  0  0  0  0  0  0  0
    2.1656    3.4771   -9.3820 O   0  0  0  0  0  0  0  0  0  0  0  0
    2.8524    3.3073  -10.7199 C   0  0  3  0  0  0  0  0  0  0  0  0
    2.0813    3.7242  -11.8573 O   0  0  0  0  0  0  0  0  0  0  0  0
   -4.9652   -5.7129   -8.6491 C   0  0  0  0  0  0  0  0  0  0  0  0
   -4.5808   -5.6873   -7.4894 O   0  0  0  0  0  0  0  0  0  0  0  0
   -6.2901   -6.2906   -9.0396 C   0  0  0  0  0  0  0  0  0  0  0  0
   -7.2947   -5.9519   -8.4493 O   0  0  0  0  0  0  0  0  0  0  0  0
   -6.3228   -7.2164  -10.2314 C   0  0  0  0  0  0  0  0  0  0  0  0
   -7.1650   -8.0855  -10.3280 O   0  0  0  0  0  0  0  0  0  0  0  0
  1  2  1  0  0  0  0
  2  3  2  0  0  0  0
  3  4  1  0  0  0  0
  3 52  1  0  0  0  0
  4  5  1  0  0  0  0
  5  6  1  1  0  0  0
  5 48  1  0  0  0  0
  6  7  1  0  0  0  0
  7  8  2  0  0  0  0
  7 12  1  0  0  0  0
  8  9  1  0  0  0  0
  8 25  1  0  0  0  0
  9 10  1  0  0  0  0
 10 11  2  0  0  0  0
 10 21  1  0  0  0  0
 11 12  1  0  0  0  0
 11 13  1  0  0  0  0
 13 14  1  0  0  0  0
 13 19  1  0  0  0  0
 14 15  1  0  0  0  0
 15 16  2  0  0  0  0
 15 17  1  0  0  0  0
 17 18  1  0  0  0  0
 18 19  1  0  0  0  0
 19 20  2  0  0  0  0
 20 21  1  0  0  0  0
 20 22  1  0  0  0  0
 22 23  1  0  0  0  0
 22 24  1  0  0  0  0
 23 24  1  0  0  0  0
 25 26  2  0  0  0  0
 25 31  1  0  0  0  0
 26 27  1  0  0  0  0
 27 28  1  0  0  0  0
 27 29  2  0  0  0  0
 29 30  1  0  0  0  0
 30 31  2  0  0  0  0
 30 41  1  0  0  0  0
 31 32  1  0  0  0  0
 32 33  2  0  0  0  0
 33 34  1  0  0  0  0
 33 40  1  0  0  0  0
 34 35  2  0  0  0  0
 34 36  1  0  0  0  0
 36 37  1  0  0  0  0
 36 38  1  0  0  0  0
 38 39  1  1  0  0  0
 38 43  1  0  0  0  0
 38 44  1  0  0  0  0
 39 40  1  0  0  0  0
 40 41  2  0  0  0  0
 41 42  1  0  0  0  0
 44 43  1  6  0  0  0
 44 45  1  0  0  0  0
 44 46  1  0  0  0  0
 45 46  1  0  0  0  0
 46 47  1  0  0  0  0
 48 49  2  0  0  0  0
 48 50  1  0  0  0  0
 50 51  2  0  0  0  0
 50 52  1  0  0  0  0
 52 53  2  0  0  0  0
M  CHG  1  27   1
M  END
$$$$