
 OpenBabel11252011383D

 54 62  0  0  1  0  0  0  0  0999 V2000
   -0.8806   -0.8344    2.4352 O   0  0  0  0  0  0  0  0  0  0  0  0
   -0.7736   -1.9698    1.6742 C   0  0  0  0  0  0  0  0  0  0  0  0
    0.3175   -2.7437    1.6725 C   0  0  0  0  0  0  0  0  0  0  0  0
    1.4261   -2.4131    2.4199 O   0  0  0  0  0  0  0  0  0  0  0  0
    2.2526   -3.4705    2.8976 C   0  0  2  0  0  0  0  0  0  0  0  0
    3.6333   -3.1400    2.6063 O   0  0  0  0  0  0  0  0  0  0  0  0
    4.4312   -2.4665    3.5157 C   0  0  0  0  0  0  0  0  0  0  0  0
    5.7179   -2.1428    3.2193 C   0  0  0  0  0  0  0  0  0  0  0  0
    6.5265   -1.4514    4.1411 O   0  0  0  0  0  0  0  0  0  0  0  0
    6.0804   -1.2417    5.4543 C   0  0  0  0  0  0  0  0  0  0  0  0
    4.8527   -1.6327    5.8358 C   0  0  0  0  0  0  0  0  0  0  0  0
    3.8569   -2.1860    4.8736 C   0  0  0  0  0  0  0  0  0  0  0  0
    4.3993   -1.5961    7.2669 C   0  0  3  0  0  0  0  0  0  0  0  0
    4.2919   -2.9490    7.6844 O   0  0  0  0  0  0  0  0  0  0  0  0
    4.0274   -3.2114    8.9913 C   0  0  0  0  0  0  0  0  0  0  0  0
    3.7025   -4.3285    9.3581 O   0  0  0  0  0  0  0  0  0  0  0  0
    4.1627   -2.1713    9.8472 O   0  0  0  0  0  0  0  0  0  0  0  0
    4.9035   -0.9937    9.5460 C   0  0  3  0  0  0  0  0  0  0  0  0
    5.4068   -0.9745    8.1473 C   0  0  0  0  0  0  0  0  0  0  0  0
    6.5953   -0.5147    7.6969 C   0  0  0  0  0  0  0  0  0  0  0  0
    6.9448   -0.6544    6.3565 O   0  3  0  0  0  0  0  0  0  0  0  0
    7.6057    0.1154    8.5767 C   0  0  0  0  0  0  0  0  0  0  0  0
    8.6159   -0.6748    9.2152 O   0  0  0  0  0  0  0  0  0  0  0  0
    8.9736    0.2310    8.1530 O   0  0  0  0  0  0  0  0  0  0  0  0
    4.0469    0.1247    9.6488 O   0  0  0  0  0  0  0  0  0  0  0  0
    6.3902   -2.5478    1.9247 C   0  0  0  0  0  0  0  0  0  0  0  0
    5.9756   -3.7477    1.3330 C   0  0  0  0  0  0  0  0  0  0  0  0
    6.4505   -4.1617    0.1582 N   0  3  0  0  0  0  0  0  0  0  0  0
    5.9622   -5.2949   -0.3813 F   0  0  0  0  0  0  0  0  0  0  0  0
    7.3828   -3.5104   -0.4937 N   0  0  0  0  0  0  0  0  0  0  0  0
    7.8979   -2.4010    0.0296 C   0  0  0  0  0  0  0  0  0  0  0  0
    7.4473   -1.8585    1.2583 C   0  0  0  0  0  0  0  0  0  0  0  0
    8.1085   -0.6867    1.7113 C   0  0  0  0  0  0  0  0  0  0  0  0
    9.1745   -0.1114    0.9926 C   0  0  0  0  0  0  0  0  0  0  0  0
    9.9052    1.0320    1.5453 C   0  0  0  0  0  0  0  0  0  0  0  0
    9.6128    1.4857    2.6406 O   0  0  0  0  0  0  0  0  0  0  0  0
   11.0755    1.5318    0.7277 C   0  0  0  0  0  0  0  0  0  0  0  0
   12.0378    2.0405    1.2808 O   0  0  0  0  0  0  0  0  0  0  0  0
   10.9485    1.2669   -0.7546 C   0  0  1  0  0  0  0  0  0  0  0  0
   10.5277   -0.0841   -1.0313 O   0  0  0  0  0  0  0  0  0  0  0  0
    9.5694   -0.6304   -0.2251 C   0  0  0  0  0  0  0  0  0  0  0  0
    8.9253   -1.7771   -0.6791 C   0  0  0  0  0  0  0  0  0  0  0  0
    9.3119   -2.3117   -1.8493 F   0  0  0  0  0  0  0  0  0  0  0  0
   10.1090    2.3131   -1.4455 C   0  0  1  0  0  0  0  0  0  0  0  0
   10.5931    3.6652   -1.3631 O   0  0  0  0  0  0  0  0  0  0  0  0
    9.5599    1.9402   -2.7181 O   0  0  0  0  0  0  0  0  0  0  0  0
    8.6929    2.1648   -1.7239 C   0  0  0  0  0  0  0  0  0  0  0  0
    7.8420    1.4514   -1.2116 O   0  0  0  0  0  0  0  0  0  0  0  0
    2.0221   -4.8365    2.2956 C   0  0  0  0  0  0  0  0  0  0  0  0
    1.1282   -5.0812    1.3368 C   0  0  0  0  0  0  0  0  0  0  0  0
    0.2594   -3.9868    0.8607 C   0  0  0  0  0  0  0  0  0  0  0  0
   -0.4689   -4.1685   -0.1061 O   0  0  0  0  0  0  0  0  0  0  0  0
    0.9872   -6.3481    0.8006 O   0  0  0  0  0  0  0  0  0  0  0  0
    2.7865   -5.8790    2.8161 O   0  0  0  0  0  0  0  0  0  0  0  0
  1  2  1  0  0  0  0
  2  3  2  0  0  0  0
  3  4  1  0  0  0  0
  3 51  1  0  0  0  0
  4  5  1  0  0  0  0
  5 49  1  0  0  0  0
  5  6  1  6  0  0  0
  6  7  1  0  0  0  0
  7  8  2  0  0  0  0
  7 12  1  0  0  0  0
  8  9  1  0  0  0  0
  8 26  1  0  0  0  0
  9 10  1  0  0  0  0
 10 11  2  0  0  0  0
 10 21  1  0  0  0  0
 11 12  1  0  0  0  0
 11 13  1  0  0  0  0
 13 14  1  0  0  0  0
 13 19  1  0  0  0  0
 14 15  1  0  0  0  0
 15 16  2  0  0  0  0
 15 17  1  0  0  0  0
 17 18  1  0  0  0  0
 18 19  1  0  0  0  0
 18 25  1  0  0  0  0
 19 20  2  0  0  0  0
 20 21  1  0  0  0  0
 20 22  1  0  0  0  0
 22 23  1  0  0  0  0
 22 24  1  0  0  0  0
 23 24  1  0  0  0  0
 26 27  2  0  0  0  0
 26 32  1  0  0  0  0
 27 28  1  0  0  0  0
 28 29  1  0  0  0  0
 28 30  2  0  0  0  0
 30 31  1  0  0  0  0
 31 32  2  0  0  0  0
 31 42  1  0  0  0  0
 32 33  1  0  0  0  0
 33 34  2  0  0  0  0
 34 35  1  0  0  0  0
 34 41  1  0  0  0  0
 35 36  2  0  0  0  0
 35 37  1  0  0  0  0
 37 38  2  0  0  0  0
 39 37  1  1  0  0  0
 39 40  1  0  0  0  0
 39 44  1  0  0  0  0
 40 41  1  0  0  0  0
 41 42  2  0  0  0  0
 42 43  1  0  0  0  0
 44 45  1  1  0  0  0
 44 46  1  0  0  0  0
 44 47  1  0  0  0  0
 46 47  1  0  0  0  0
 47 48  2  0  0  0  0
 49 50  2  0  0  0  0
 49 54  1  0  0  0  0
 50 51  1  0  0  0  0
 50 53  1  0  0  0  0
 51 52  2  0  0  0  0
M  CHG  2  21   1  28   1
M  END
$$$$