
 OpenBabel11212015183D

 53 61  0  0  1  0  0  0  0  0999 V2000
    3.7312    4.8442   -6.1378 O   0  0  0  0  0  0  0  0  0  0  0  0
    2.8070    3.8453   -5.9907 C   0  0  0  0  0  0  0  0  0  0  0  0
    2.4516    3.3409   -4.8007 C   0  0  0  0  0  0  0  0  0  0  0  0
    3.0350    3.7838   -3.6221 O   0  0  0  0  0  0  0  0  0  0  0  0
    2.2214    3.7016   -2.4505 C   0  0  2  0  0  0  0  0  0  0  0  0
    2.9537    4.1043   -1.2739 O   0  0  0  0  0  0  0  0  0  0  0  0
    2.9837    5.4439   -0.8966 C   0  0  0  0  0  0  0  0  0  0  0  0
    4.0204    5.9601   -0.1879 C   0  0  0  0  0  0  0  0  0  0  0  0
    4.0690    7.2940    0.2131 O   0  0  0  0  0  0  0  0  0  0  0  0
    3.0910    8.1738   -0.2193 C   0  0  0  0  0  0  0  0  0  0  0  0
    1.9871    7.7598   -0.8599 C   0  0  0  0  0  0  0  0  0  0  0  0
    1.7658    6.3118   -1.1642 C   0  0  0  0  0  0  0  0  0  0  0  0
    0.9752    8.7643   -1.3683 C   0  0  3  0  0  0  0  0  0  0  0  0
   -0.2834    8.4699   -0.7658 O   0  0  0  0  0  0  0  0  0  0  0  0
   -1.3106    9.3559   -0.8315 C   0  0  0  0  0  0  0  0  0  0  0  0
   -2.4423    9.0403   -0.4877 O   0  0  0  0  0  0  0  0  0  0  0  0
   -1.0370   10.6088   -1.2647 O   0  0  0  0  0  0  0  0  0  0  0  0
    0.2649   11.0695   -1.6014 C   0  0  3  0  0  0  0  0  0  0  0  0
    1.3205   10.1836   -1.0696 C   0  0  0  0  0  0  0  0  0  0  0  0
    2.4474   10.5256   -0.4029 C   0  0  0  0  0  0  0  0  0  0  0  0
    3.2970    9.5094    0.0179 N   0  0  0  0  0  0  0  0  0  0  0  0
    2.8815   11.9050   -0.0673 C   0  0  0  0  0  0  0  0  0  0  0  0
    3.7368   12.6491   -0.9533 O   0  0  0  0  0  0  0  0  0  0  0  0
    2.3896   13.0901   -0.7155 O   0  0  0  0  0  0  0  0  0  0  0  0
    0.3851   11.1060   -3.0140 O   0  0  0  0  0  0  0  0  0  0  0  0
    5.1814    5.1830    0.3140 C   0  0  0  0  0  0  0  0  0  0  0  0
    5.0762    4.6150    1.5871 C   0  0  0  0  0  0  0  0  0  0  0  0
    6.1291    3.8607    2.0623 C   0  0  0  0  0  0  0  0  0  0  0  0
    6.0346    3.3259    3.2882 F   0  0  0  0  0  0  0  0  0  0  0  0
    7.2550    3.6124    1.3703 N   0  0  0  0  0  0  0  0  0  0  0  0
    7.3695    4.1481    0.1519 C   0  0  0  0  0  0  0  0  0  0  0  0
    6.3845    4.9921   -0.4169 C   0  0  0  0  0  0  0  0  0  0  0  0
    6.6578    5.5743   -1.6738 C   0  0  0  0  0  0  0  0  0  0  0  0
    7.8096    5.2211   -2.3951 C   0  0  0  0  0  0  0  0  0  0  0  0
    8.7217    4.3240   -1.8724 C   0  0  0  0  0  0  0  0  0  0  0  0
    8.5042    3.8285   -0.5858 C   0  0  0  0  0  0  0  0  0  0  0  0
    9.8175    3.8365   -2.5140 O   0  0  0  0  0  0  0  0  0  0  0  0
   10.1822    4.3644   -3.7858 C   0  0  2  0  0  0  0  0  0  0  0  0
    9.2462    5.3282   -4.4880 C   0  0  0  0  0  0  0  0  0  0  0  0
    9.4491    5.7496   -5.6238 O   0  0  0  0  0  0  0  0  0  0  0  0
    8.0189    5.7616   -3.7341 C   0  0  0  0  0  0  0  0  0  0  0  0
    7.2210    6.5308   -4.2485 O   0  0  0  0  0  0  0  0  0  0  0  0
   10.5644    3.2454   -4.7495 C   0  0  1  0  0  0  0  0  0  0  0  0
   10.9812    3.6330   -6.0849 O   0  0  0  0  0  0  0  0  0  0  0  0
   11.3721    2.1985   -4.1697 O   0  0  0  0  0  0  0  0  0  0  0  0
   10.1492    1.8733   -4.5849 C   0  0  0  0  0  0  0  0  0  0  0  0
    9.1975    1.3520   -4.0225 O   0  0  0  0  0  0  0  0  0  0  0  0
    1.7112    2.2829   -2.2411 C   0  0  0  0  0  0  0  0  0  0  0  0
    1.7497    1.6336   -1.2072 O   0  0  0  0  0  0  0  0  0  0  0  0
    1.0306    1.7371   -3.4672 C   0  0  0  0  0  0  0  0  0  0  0  0
    0.1193    0.9311   -3.3568 O   0  0  0  0  0  0  0  0  0  0  0  0
    1.4263    2.2587   -4.8266 C   0  0  0  0  0  0  0  0  0  0  0  0
    0.9092    1.8300   -5.8466 O   0  0  0  0  0  0  0  0  0  0  0  0
  1  2  1  0  0  0  0
  2  3  2  0  0  0  0
  3  4  1  0  0  0  0
  3 52  1  0  0  0  0
  4  5  1  0  0  0  0
  5  6  1  1  0  0  0
  5 48  1  0  0  0  0
  6  7  1  0  0  0  0
  7  8  2  0  0  0  0
  7 12  1  0  0  0  0
  8  9  1  0  0  0  0
  8 26  1  0  0  0  0
  9 10  1  0  0  0  0
 10 11  2  0  0  0  0
 10 21  1  0  0  0  0
 11 12  1  0  0  0  0
 11 13  1  0  0  0  0
 13 14  1  0  0  0  0
 13 19  1  0  0  0  0
 14 15  1  0  0  0  0
 15 16  2  0  0  0  0
 15 17  1  0  0  0  0
 17 18  1  0  0  0  0
 18 19  1  0  0  0  0
 18 25  1  0  0  0  0
 19 20  2  0  0  0  0
 20 21  1  0  0  0  0
 20 22  1  0  0  0  0
 22 23  1  0  0  0  0
 22 24  1  0  0  0  0
 23 24  1  0  0  0  0
 26 27  2  0  0  0  0
 26 32  1  0  0  0  0
 27 28  1  0  0  0  0
 28 29  1  0  0  0  0
 28 30  2  0  0  0  0
 30 31  1  0  0  0  0
 31 32  2  0  0  0  0
 31 36  1  0  0  0  0
 32 33  1  0  0  0  0
 33 34  2  0  0  0  0
 34 35  1  0  0  0  0
 34 41  1  0  0  0  0
 35 36  2  0  0  0  0
 35 37  1  0  0  0  0
 38 37  1  1  0  0  0
 38 39  1  0  0  0  0
 38 43  1  0  0  0  0
 39 40  2  0  0  0  0
 39 41  1  0  0  0  0
 41 42  2  0  0  0  0
 43 44  1  6  0  0  0
 43 45  1  0  0  0  0
 43 46  1  0  0  0  0
 45 46  1  0  0  0  0
 46 47  2  0  0  0  0
 48 49  2  0  0  0  0
 48 50  1  0  0  0  0
 50 51  2  0  0  0  0
 50 52  1  0  0  0  0
 52 53  2  0  0  0  0
M  END
$$$$