
 OpenBabel10272001103D

 51 60  0  0  1  0  0  0  0  0999 V2000
    3.4270    4.2676    1.9912 O   0  0  0  0  0  0  0  0  0  0  0  0
    2.1248    4.5933    2.2741 C   0  0  0  0  0  0  0  0  0  0  0  0
    1.2880    3.7249    2.8513 C   0  0  0  0  0  0  0  0  0  0  0  0
    1.6955    2.4293    3.1456 O   0  0  0  0  0  0  0  0  0  0  0  0
    1.3725    2.0743    4.4857 C   0  0  2  0  0  0  0  0  0  0  0  0
    1.8901    0.7440    4.7515 O   0  0  0  0  0  0  0  0  0  0  0  0
    2.2183    0.3993    6.0520 C   0  0  0  0  0  0  0  0  0  0  0  0
    2.0681   -0.8738    6.4719 C   0  0  0  0  0  0  0  0  0  0  0  0
    2.4250   -1.2773    7.7569 O   0  0  0  0  0  0  0  0  0  0  0  0
    2.9360   -0.3587    8.6655 C   0  0  0  0  0  0  0  0  0  0  0  0
    3.1002    0.9303    8.3365 C   0  0  0  0  0  0  0  0  0  0  0  0
    2.7967    1.4505    6.9672 C   0  0  0  0  0  0  0  0  0  0  0  0
    3.5363    1.9433    9.3488 C   0  0  3  0  0  0  0  0  0  0  0  0
    2.4620    2.8656    9.4703 O   0  0  0  0  0  0  0  0  0  0  0  0
    2.6142    3.8872   10.3502 C   0  0  0  0  0  0  0  0  0  0  0  0
    1.9211    4.8896   10.2765 O   0  0  0  0  0  0  0  0  0  0  0  0
    3.6056    3.7341   11.2604 O   0  0  0  0  0  0  0  0  0  0  0  0
    4.1043    2.4439   11.6646 C   0  0  0  0  0  0  0  0  0  0  0  0
    3.7632    1.3686   10.6921 C   0  0  0  0  0  0  0  0  0  0  0  0
    3.6215    0.0512   10.9531 C   0  0  0  0  0  0  0  0  0  0  0  0
    3.2265   -0.8311    9.9356 O   0  0  0  0  0  0  0  0  0  0  0  0
    3.8479   -0.5903   12.2687 C   0  0  0  0  0  0  0  0  0  0  0  0
    3.5853    0.0472   13.5285 O   0  0  0  0  0  0  0  0  0  0  0  0
    2.7337   -1.0201   13.0729 O   0  0  0  0  0  0  0  0  0  0  0  0
    1.5127   -1.9894    5.6186 C   0  0  3  0  0  0  0  0  0  0  0  0
    2.0678   -3.3543    5.9336 C   0  0  0  0  0  0  0  0  0  0  0  0
    3.3683   -3.8336    5.8924 C   0  0  0  0  0  0  0  0  0  0  0  0
    3.5956   -5.1524    6.3179 C   0  0  0  0  0  0  0  0  0  0  0  0
    2.5425   -5.9593    6.7708 C   0  0  0  0  0  0  0  0  0  0  0  0
    1.2378   -5.4473    6.8389 C   0  0  0  0  0  0  0  0  0  0  0  0
    1.0180   -4.1536    6.3782 C   0  0  0  0  0  0  0  0  0  0  0  0
   -0.1872   -3.4885    6.3557 O   0  3  0  0  0  0  0  0  0  0  0  0
    0.1080   -2.1135    5.9105 O   0  3  3  0  0  0  0  0  0  0  0  0
   -0.6076   -3.0013    5.1059 C   0  0  0  0  0  0  0  0  0  0  0  0
    2.6825   -7.2819    7.0954 O   0  0  0  0  0  0  0  0  0  0  0  0
    3.8506   -7.9659    6.5764 C   0  0  2  0  0  0  0  0  0  0  0  0
    5.0930   -7.1331    6.7667 C   0  0  0  0  0  0  0  0  0  0  0  0
    6.1408   -7.5112    7.2611 O   0  0  0  0  0  0  0  0  0  0  0  0
    4.9464   -5.7206    6.2629 C   0  0  0  0  0  0  0  0  0  0  0  0
    5.8769   -5.0953    5.7885 O   0  0  0  0  0  0  0  0  0  0  0  0
    3.6842   -8.4218    5.1407 C   0  0  1  0  0  0  0  0  0  0  0  0
    4.8057   -9.1195    4.5626 O   0  0  0  0  0  0  0  0  0  0  0  0
    2.4078   -9.0463    4.8830 O   0  0  0  0  0  0  0  0  0  0  0  0
    2.6781   -7.9269    4.2118 C   0  0  0  0  0  0  0  0  0  0  0  0
    2.0794   -6.8651    4.1306 O   0  0  0  0  0  0  0  0  0  0  0  0
   -0.1374    1.9758    4.6447 C   0  0  0  0  0  0  0  0  0  0  0  0
   -0.7024    1.0910    5.2882 O   0  0  0  0  0  0  0  0  0  0  0  0
   -0.8901    3.0194    3.8434 C   0  0  0  0  0  0  0  0  0  0  0  0
   -2.0879    2.8789    3.6638 O   0  0  0  0  0  0  0  0  0  0  0  0
   -0.1033    4.1418    3.1861 C   0  0  0  0  0  0  0  0  0  0  0  0
   -0.5646    5.2543    3.0248 O   0  0  0  0  0  0  0  0  0  0  0  0
  1  2  1  0  0  0  0
  2  3  2  0  0  0  0
  3  4  1  0  0  0  0
  3 50  1  0  0  0  0
  4  5  1  0  0  0  0
  5  6  1  6  0  0  0
  5 46  1  0  0  0  0
  6  7  1  0  0  0  0
  7  8  2  0  0  0  0
  7 12  1  0  0  0  0
  8  9  1  0  0  0  0
  8 25  1  0  0  0  0
  9 10  1  0  0  0  0
 10 11  2  0  0  0  0
 10 21  1  0  0  0  0
 11 12  1  0  0  0  0
 11 13  1  0  0  0  0
 13 14  1  0  0  0  0
 13 19  1  0  0  0  0
 14 15  1  0  0  0  0
 15 16  2  0  0  0  0
 15 17  1  0  0  0  0
 17 18  1  0  0  0  0
 18 19  1  0  0  0  0
 19 20  2  0  0  0  0
 20 21  1  0  0  0  0
 20 22  1  0  0  0  0
 22 23  1  0  0  0  0
 22 24  1  0  0  0  0
 23 24  1  0  0  0  0
 25 26  1  0  0  0  0
 25 33  1  0  0  0  0
 26 27  2  0  0  0  0
 26 31  1  0  0  0  0
 27 28  1  0  0  0  0
 28 29  2  0  0  0  0
 28 39  1  0  0  0  0
 29 30  1  0  0  0  0
 29 35  1  0  0  0  0
 30 31  2  0  0  0  0
 31 32  1  0  0  0  0
 32 33  1  0  0  0  0
 32 34  1  0  0  0  0
 33 34  1  0  0  0  0
 36 35  1  6  0  0  0
 36 37  1  0  0  0  0
 36 41  1  0  0  0  0
 37 38  2  0  0  0  0
 37 39  1  0  0  0  0
 39 40  2  0  0  0  0
 41 42  1  6  0  0  0
 41 43  1  0  0  0  0
 41 44  1  0  0  0  0
 43 44  1  0  0  0  0
 44 45  2  0  0  0  0
 46 47  2  0  0  0  0
 46 48  1  0  0  0  0
 48 49  2  0  0  0  0
 48 50  1  0  0  0  0
 50 51  2  0  0  0  0
M  CHG  2  32   1  33   1
M  END
$$$$