
 OpenBabel11262013503D

 54 62  0  0  1  0  0  0  0  0999 V2000
   -0.8182   -2.7214   -4.2152 F   0  0  0  0  0  0  0  0  0  0  0  0
   -0.3621   -1.6220   -3.5822 C   0  0  0  0  0  0  0  0  0  0  0  0
    0.4435   -1.7339   -2.5251 C   0  0  0  0  0  0  0  0  0  0  0  0
    0.7944   -2.9959   -2.0651 O   0  0  0  0  0  0  0  0  0  0  0  0
    2.0580   -3.0535   -1.4064 C   0  0  2  0  0  0  0  0  0  0  0  0
    2.3290   -4.4238   -1.0035 O   0  0  0  0  0  0  0  0  0  0  0  0
    2.3920   -5.3732   -2.0176 C   0  0  0  0  0  0  0  0  0  0  0  0
    2.0858   -6.6638   -1.7665 C   0  0  0  0  0  0  0  0  0  0  0  0
    2.1387   -7.6615   -2.7542 O   0  0  0  0  0  0  0  0  0  0  0  0
    2.6130   -7.3451   -4.0464 C   0  0  0  0  0  0  0  0  0  0  0  0
    3.0056   -6.0916   -4.3475 C   0  0  0  0  0  0  0  0  0  0  0  0
    2.8984   -4.9498   -3.3786 C   0  0  0  0  0  0  0  0  0  0  0  0
    3.5932   -5.7350   -5.6945 C   0  0  3  0  0  0  0  0  0  0  0  0
    4.9429   -5.3773   -5.4627 O   0  0  0  0  0  0  0  0  0  0  0  0
    5.7229   -5.0934   -6.5441 C   0  0  0  0  0  0  0  0  0  0  0  0
    6.7902   -4.5204   -6.4127 O   0  0  0  0  0  0  0  0  0  0  0  0
    5.2393   -5.4868   -7.7454 O   0  0  0  0  0  0  0  0  0  0  0  0
    4.2365   -6.4828   -7.9041 C   0  0  3  0  0  0  0  0  0  0  0  0
    3.6275   -6.8928   -6.6100 C   0  0  0  0  0  0  0  0  0  0  0  0
    3.1842   -8.1196   -6.2655 C   0  0  0  0  0  0  0  0  0  0  0  0
    2.6819   -8.3545   -4.9918 O   0  3  0  0  0  0  0  0  0  0  0  0
    3.2281   -9.2955   -7.1655 C   0  0  0  0  0  0  0  0  0  0  0  0
    4.3530  -10.1814   -7.1544 O   0  0  0  0  0  0  0  0  0  0  0  0
    3.0892  -10.6202   -6.6200 O   0  0  0  0  0  0  0  0  0  0  0  0
    3.1616   -5.9405   -8.6434 O   0  0  0  0  0  0  0  0  0  0  0  0
    1.6769   -7.1210   -0.4034 C   0  0  0  0  0  0  0  0  0  0  0  0
    0.3284   -7.0393   -0.0303 C   0  0  0  0  0  0  0  0  0  0  0  0
   -0.0541   -7.4400    1.1867 N   0  3  0  0  0  0  0  0  0  0  0  0
   -1.3572   -7.3692    1.5304 F   0  0  0  0  0  0  0  0  0  0  0  0
    0.8004   -7.9202    2.0667 N   0  0  0  0  0  0  0  0  0  0  0  0
    2.1040   -8.0017    1.7448 C   0  0  0  0  0  0  0  0  0  0  0  0
    2.5905   -7.6037    0.5052 N   0  3  0  0  0  0  0  0  0  0  0  0
    3.9272   -7.7127    0.2478 C   0  0  0  0  0  0  0  0  0  0  0  0
    4.8089   -8.2580    1.1808 C   0  0  0  0  0  0  0  0  0  0  0  0
    6.2060   -8.4459    0.8204 C   0  0  0  0  0  0  0  0  0  0  0  0
    6.5767   -8.0476   -0.2696 O   0  0  0  0  0  0  0  0  0  0  0  0
    7.0834   -9.1720    1.8161 C   0  0  0  0  0  0  0  0  0  0  0  0
    8.2925   -9.0353    1.7706 O   0  0  0  0  0  0  0  0  0  0  0  0
    6.3154  -10.0342    2.7997 C   0  0  1  0  0  0  0  0  0  0  0  0
    5.1314   -9.3610    3.3027 O   0  0  0  0  0  0  0  0  0  0  0  0
    4.3543   -8.6982    2.3992 C   0  0  0  0  0  0  0  0  0  0  0  0
    3.0041   -8.5316    2.6785 C   0  0  0  0  0  0  0  0  0  0  0  0
    2.5259   -8.9557    3.8568 F   0  0  0  0  0  0  0  0  0  0  0  0
    6.0138  -11.4070    2.2332 C   0  0  1  0  0  0  0  0  0  0  0  0
    7.1459  -12.2105    1.8700 O   0  0  0  0  0  0  0  0  0  0  0  0
    4.9098  -12.1035    2.8190 O   0  0  0  0  0  0  0  0  0  0  0  0
    4.7767  -11.7459    1.5357 C   0  0  0  0  0  0  0  0  0  0  0  0
    3.9531  -11.0374    0.9726 O   0  0  0  0  0  0  0  0  0  0  0  0
    1.9668   -2.1728   -0.1802 C   0  0  0  0  0  0  0  0  0  0  0  0
    2.0358   -2.5804    0.9692 O   0  0  0  0  0  0  0  0  0  0  0  0
    1.6758   -0.7367   -0.5553 C   0  0  0  0  0  0  0  0  0  0  0  0
    2.0882    0.1681    0.1438 O   0  0  0  0  0  0  0  0  0  0  0  0
    0.9200   -0.4854   -1.8558 C   0  0  0  0  0  0  0  0  0  0  0  0
    0.7673    0.6267   -2.3221 O   0  0  0  0  0  0  0  0  0  0  0  0
  1  2  1  0  0  0  0
  2  3  2  0  0  0  0
  3  4  1  0  0  0  0
  3 53  1  0  0  0  0
  4  5  1  0  0  0  0
  5  6  1  1  0  0  0
  5 49  1  0  0  0  0
  6  7  1  0  0  0  0
  7  8  2  0  0  0  0
  7 12  1  0  0  0  0
  8  9  1  0  0  0  0
  8 26  1  0  0  0  0
  9 10  1  0  0  0  0
 10 11  2  0  0  0  0
 10 21  1  0  0  0  0
 11 12  1  0  0  0  0
 11 13  1  0  0  0  0
 13 14  1  0  0  0  0
 13 19  1  0  0  0  0
 14 15  1  0  0  0  0
 15 16  2  0  0  0  0
 15 17  1  0  0  0  0
 17 18  1  0  0  0  0
 18 19  1  0  0  0  0
 18 25  1  0  0  0  0
 19 20  2  0  0  0  0
 20 21  1  0  0  0  0
 20 22  1  0  0  0  0
 22 23  1  0  0  0  0
 22 24  1  0  0  0  0
 23 24  1  0  0  0  0
 26 27  2  0  0  0  0
 26 32  1  0  0  0  0
 27 28  1  0  0  0  0
 28 29  1  0  0  0  0
 28 30  2  0  0  0  0
 30 31  1  0  0  0  0
 31 32  2  0  0  0  0
 31 42  1  0  0  0  0
 32 33  1  0  0  0  0
 33 34  2  0  0  0  0
 34 35  1  0  0  0  0
 34 41  1  0  0  0  0
 35 36  2  0  0  0  0
 35 37  1  0  0  0  0
 37 38  2  0  0  0  0
 39 37  1  6  0  0  0
 39 40  1  0  0  0  0
 39 44  1  0  0  0  0
 40 41  1  0  0  0  0
 41 42  2  0  0  0  0
 42 43  1  0  0  0  0
 44 45  1  6  0  0  0
 44 46  1  0  0  0  0
 44 47  1  0  0  0  0
 46 47  1  0  0  0  0
 47 48  2  0  0  0  0
 49 50  2  0  0  0  0
 49 51  1  0  0  0  0
 51 52  2  0  0  0  0
 51 53  1  0  0  0  0
 53 54  2  0  0  0  0
M  CHG  3  21   1  28   1  32   1
M  END
$$$$