
 OpenBabel11212022123D

 54 62  0  0  1  0  0  0  0  0999 V2000
    2.7988   -7.0776   -0.2549 O   0  0  0  0  0  0  0  0  0  0  0  0
    4.1230   -6.6175    0.0269 C   0  0  0  0  0  0  0  0  0  0  0  0
    4.0944   -5.1292    0.4010 C   0  0  3  0  0  0  0  0  0  0  0  0
    3.5522   -4.3501   -0.6686 O   0  0  0  0  0  0  0  0  0  0  0  0
    2.1421   -4.2004   -0.6272 C   0  0  2  0  0  0  0  0  0  0  0  0
    1.6869   -3.4060   -1.7345 O   0  0  0  0  0  0  0  0  0  0  0  0
    1.7282   -3.9167   -3.0147 C   0  0  0  0  0  0  0  0  0  0  0  0
    1.7285   -3.0792   -4.0747 C   0  0  0  0  0  0  0  0  0  0  0  0
    1.7736   -3.5615   -5.3907 O   0  0  0  0  0  0  0  0  0  0  0  0
    1.7417   -4.9395   -5.6386 C   0  0  0  0  0  0  0  0  0  0  0  0
    1.6366   -5.8289   -4.6330 C   0  0  0  0  0  0  0  0  0  0  0  0
    1.6790   -5.4100   -3.1939 C   0  0  0  0  0  0  0  0  0  0  0  0
    1.4662   -7.3060   -4.8813 C   0  0  3  0  0  0  0  0  0  0  0  0
    0.1693   -7.6563   -4.4241 O   0  0  0  0  0  0  0  0  0  0  0  0
   -0.2216   -8.9500   -4.5918 C   0  0  0  0  0  0  0  0  0  0  0  0
   -1.1790   -9.4107   -3.9951 O   0  0  0  0  0  0  0  0  0  0  0  0
    0.5465   -9.6829   -5.4329 O   0  0  0  0  0  0  0  0  0  0  0  0
    1.2192   -9.0800   -6.5313 C   0  0  3  0  0  0  0  0  0  0  0  0
    1.4835   -7.6290   -6.3242 C   0  0  0  0  0  0  0  0  0  0  0  0
    1.6687   -6.6969   -7.2850 C   0  0  0  0  0  0  0  0  0  0  0  0
    1.8045   -5.3564   -6.9509 O   0  3  0  0  0  0  0  0  0  0  0  0
    1.6956   -7.0064   -8.7321 C   0  0  0  0  0  0  0  0  0  0  0  0
    0.5147   -6.8625   -9.5301 O   0  0  0  0  0  0  0  0  0  0  0  0
    1.6137   -5.9469   -9.7013 O   0  0  0  0  0  0  0  0  0  0  0  0
    2.4965   -9.6717   -6.6539 O   0  0  0  0  0  0  0  0  0  0  0  0
    1.6554   -1.5830   -3.9239 C   0  0  0  0  0  0  0  0  0  0  0  0
    0.8192   -1.0396   -2.9385 C   0  0  0  0  0  0  0  0  0  0  0  0
    0.7260    0.2799   -2.7490 N   0  3  0  0  0  0  0  0  0  0  0  0
   -0.0399    0.7450   -1.7427 F   0  0  0  0  0  0  0  0  0  0  0  0
    1.3437    1.1501   -3.5206 N   0  0  0  0  0  0  0  0  0  0  0  0
    2.1342    0.7170   -4.5039 C   0  0  0  0  0  0  0  0  0  0  0  0
    2.3589   -0.6586   -4.7357 C   0  0  0  0  0  0  0  0  0  0  0  0
    3.2734   -1.0106   -5.7575 C   0  0  0  0  0  0  0  0  0  0  0  0
    3.8813   -0.0377   -6.5625 C   0  0  0  0  0  0  0  0  0  0  0  0
    4.7637   -0.4307   -7.6621 C   0  0  0  0  0  0  0  0  0  0  0  0
    4.7407   -1.5848   -8.0651 O   0  0  0  0  0  0  0  0  0  0  0  0
    5.6437    0.6522   -8.2619 C   0  0  0  0  0  0  0  0  0  0  0  0
    6.4349    0.3794   -9.1515 O   0  0  0  0  0  0  0  0  0  0  0  0
    5.4995    2.0169   -7.6152 C   0  0  1  0  0  0  0  0  0  0  0  0
    4.1781    2.2916   -7.1171 O   0  0  0  0  0  0  0  0  0  0  0  0
    3.6290    1.3016   -6.3535 C   0  0  0  0  0  0  0  0  0  0  0  0
    2.7581    1.6579   -5.3271 C   0  0  0  0  0  0  0  0  0  0  0  0
    2.5168    2.9611   -5.1146 F   0  0  0  0  0  0  0  0  0  0  0  0
    6.4982    2.2170   -6.5203 C   0  0  1  0  0  0  0  0  0  0  0  0
    6.4593    1.2699   -5.4174 O   0  0  0  0  0  0  0  0  0  0  0  0
    7.7832    2.6757   -6.9084 O   0  0  0  0  0  0  0  0  0  0  0  0
    7.0408    3.5387   -6.1829 C   0  0  0  0  0  0  0  0  0  0  0  0
    7.2286    3.9984   -5.0784 O   0  0  0  0  0  0  0  0  0  0  0  0
    1.7705   -3.3951    0.5957 C   0  0  0  0  0  0  0  0  0  0  0  0
    1.1360   -2.3475    0.5838 O   0  0  0  0  0  0  0  0  0  0  0  0
    2.2894   -4.0258    1.8589 C   0  0  0  0  0  0  0  0  0  0  0  0
    1.7206   -3.8001    2.9134 O   0  0  0  0  0  0  0  0  0  0  0  0
    3.4773   -4.9664    1.7881 C   0  0  0  0  0  0  0  0  0  0  0  0
    3.8779   -5.5548    2.7804 O   0  0  0  0  0  0  0  0  0  0  0  0
  1  2  1  0  0  0  0
  2  3  1  0  0  0  0
  3  4  1  0  0  0  0
  3 53  1  0  0  0  0
  4  5  1  0  0  0  0
  5  6  1  6  0  0  0
  5 49  1  0  0  0  0
  6  7  1  0  0  0  0
  7  8  2  0  0  0  0
  7 12  1  0  0  0  0
  8  9  1  0  0  0  0
  8 26  1  0  0  0  0
  9 10  1  0  0  0  0
 10 11  2  0  0  0  0
 10 21  1  0  0  0  0
 11 12  1  0  0  0  0
 11 13  1  0  0  0  0
 13 14  1  0  0  0  0
 13 19  1  0  0  0  0
 14 15  1  0  0  0  0
 15 16  2  0  0  0  0
 15 17  1  0  0  0  0
 17 18  1  0  0  0  0
 18 19  1  0  0  0  0
 18 25  1  0  0  0  0
 19 20  2  0  0  0  0
 20 21  1  0  0  0  0
 20 22  1  0  0  0  0
 22 23  1  0  0  0  0
 22 24  1  0  0  0  0
 23 24  1  0  0  0  0
 26 27  2  0  0  0  0
 26 32  1  0  0  0  0
 27 28  1  0  0  0  0
 28 29  1  0  0  0  0
 28 30  2  0  0  0  0
 30 31  1  0  0  0  0
 31 32  2  0  0  0  0
 31 42  1  0  0  0  0
 32 33  1  0  0  0  0
 33 34  2  0  0  0  0
 34 35  1  0  0  0  0
 34 41  1  0  0  0  0
 35 36  2  0  0  0  0
 35 37  1  0  0  0  0
 37 38  2  0  0  0  0
 39 37  1  1  0  0  0
 39 40  1  0  0  0  0
 39 44  1  0  0  0  0
 40 41  1  0  0  0  0
 41 42  2  0  0  0  0
 42 43  1  0  0  0  0
 44 45  1  1  0  0  0
 44 46  1  0  0  0  0
 44 47  1  0  0  0  0
 46 47  1  0  0  0  0
 47 48  2  0  0  0  0
 49 50  2  0  0  0  0
 49 51  1  0  0  0  0
 51 52  2  0  0  0  0
 51 53  1  0  0  0  0
 53 54  2  0  0  0  0
M  CHG  2  21   1  28   1
M  END
$$$$