
 OpenBabel11012010293D

 51 59  0  0  1  0  0  0  0  0999 V2000
    4.9655    3.9173   -7.2431 O   0  0  0  0  0  0  0  0  0  0  0  0
    4.6438    5.1623   -7.7107 C   0  0  0  0  0  0  0  0  0  0  0  0
    4.5226    5.4292   -9.0171 C   0  0  0  0  0  0  0  0  0  0  0  0
    4.7142    4.4470   -9.9722 O   0  0  0  0  0  0  0  0  0  0  0  0
    3.8299    4.5403  -11.0998 C   0  0  2  0  0  0  0  0  0  0  0  0
    3.8720    3.3699  -11.9313 O   0  0  0  0  0  0  0  0  0  0  0  0
    3.4506    2.1686  -11.3578 C   0  0  0  0  0  0  0  0  0  0  0  0
    2.8960    1.1801  -12.0962 C   0  0  0  0  0  0  0  0  0  0  0  0
    2.4961   -0.0449  -11.5538 O   0  0  0  0  0  0  0  0  0  0  0  0
    2.5885   -0.2526  -10.1780 C   0  0  0  0  0  0  0  0  0  0  0  0
    3.0979    0.6775   -9.3633 C   0  0  0  0  0  0  0  0  0  0  0  0
    3.6401    1.9674   -9.8725 C   0  0  0  0  0  0  0  0  0  0  0  0
    3.1159    0.4724   -7.8956 C   0  0  0  0  0  0  0  0  0  0  0  0
    3.4903    1.4229   -7.1084 N   0  0  0  0  0  0  0  0  0  0  0  0
    3.5054    1.2258   -5.7488 C   0  0  0  0  0  0  0  0  0  0  0  0
    3.7702    2.1870   -5.0344 O   0  0  0  0  0  0  0  0  0  0  0  0
    3.2483    0.0028   -5.1664 N   0  0  0  0  0  0  0  0  0  0  0  0
    2.8600   -0.9638   -5.9261 C   0  0  0  0  0  0  0  0  0  0  0  0
    2.6964   -0.8410   -7.3842 C   0  0  0  0  0  0  0  0  0  0  0  0
    2.2197   -1.8067   -8.1937 C   0  0  0  0  0  0  0  0  0  0  0  0
    2.0686   -1.5747   -9.6927 C   0  0  0  0  0  0  0  0  0  0  0  0
    1.7885   -3.1491   -7.7381 C   0  0  0  0  0  0  0  0  0  0  0  0
    0.4381   -3.3956   -7.3182 O   0  0  0  0  0  0  0  0  0  0  0  0
    0.9360   -3.9915   -8.5312 O   0  0  0  0  0  0  0  0  0  0  0  0
    2.5105    1.3515  -13.5114 C   0  0  0  0  0  0  0  0  0  0  0  0
    1.2400    1.8010  -13.6483 N   0  0  0  0  0  0  0  0  0  0  0  0
    0.8087    1.9844  -14.8971 C   0  0  0  0  0  0  0  0  0  0  0  0
    1.5193    1.7816  -16.0104 N   0  0  0  0  0  0  0  0  0  0  0  0
    2.7674    1.3345  -15.8624 C   0  0  0  0  0  0  0  0  0  0  0  0
    3.3443    1.0647  -14.6091 C   0  0  0  0  0  0  0  0  0  0  0  0
    4.6566    0.5245  -14.5624 C   0  0  0  0  0  0  0  0  0  0  0  0
    5.3636    0.2825  -15.7489 C   0  0  0  0  0  0  0  0  0  0  0  0
    4.8124    0.6211  -16.9784 C   0  0  0  0  0  0  0  0  0  0  0  0
    3.5130    1.1249  -17.0167 C   0  0  0  0  0  0  0  0  0  0  0  0
    5.4343    0.4885  -18.1906 O   0  0  0  0  0  0  0  0  0  0  0  0
    6.8306    0.1630  -18.1807 C   0  0  2  0  0  0  0  0  0  0  0  0
    7.2270   -0.7780  -17.0713 C   0  0  0  0  0  0  0  0  0  0  0  0
    7.9143   -1.7784  -17.2166 O   0  0  0  0  0  0  0  0  0  0  0  0
    6.6681   -0.3923  -15.7213 C   0  0  0  0  0  0  0  0  0  0  0  0
    7.2439   -0.6777  -14.6851 O   0  0  0  0  0  0  0  0  0  0  0  0
    7.6733    1.3988  -18.1612 C   0  0  1  0  0  0  0  0  0  0  0  0
    7.5016    2.2806  -17.0267 O   0  0  0  0  0  0  0  0  0  0  0  0
    9.0271    1.1810  -18.5697 O   0  0  0  0  0  0  0  0  0  0  0  0
    8.2889    1.9990  -19.3448 C   0  0  0  0  0  0  0  0  0  0  0  0
    8.4730    3.1594  -19.6305 O   0  0  0  0  0  0  0  0  0  0  0  0
    4.2953    5.7853  -11.8354 C   0  0  0  0  0  0  0  0  0  0  0  0
    4.6960    5.8537  -12.9871 O   0  0  0  0  0  0  0  0  0  0  0  0
    4.2393    7.0105  -10.9468 C   0  0  0  0  0  0  0  0  0  0  0  0
    4.1520    8.1257  -11.4356 O   0  0  0  0  0  0  0  0  0  0  0  0
    4.2445    6.8270   -9.4380 C   0  0  0  0  0  0  0  0  0  0  0  0
    4.0183    7.7450   -8.6686 O   0  0  0  0  0  0  0  0  0  0  0  0
  1  2  1  0  0  0  0
  2  3  2  0  0  0  0
  3  4  1  0  0  0  0
  3 50  1  0  0  0  0
  4  5  1  0  0  0  0
  5  6  1  6  0  0  0
  5 46  1  0  0  0  0
  6  7  1  0  0  0  0
  7  8  2  0  0  0  0
  7 12  1  0  0  0  0
  8  9  1  0  0  0  0
  8 25  1  0  0  0  0
  9 10  1  0  0  0  0
 10 11  2  0  0  0  0
 10 21  1  0  0  0  0
 11 12  1  0  0  0  0
 11 13  1  0  0  0  0
 13 14  2  0  0  0  0
 13 19  1  0  0  0  0
 14 15  1  0  0  0  0
 15 16  2  0  0  0  0
 15 17  1  0  0  0  0
 17 18  2  0  0  0  0
 18 19  1  0  0  0  0
 19 20  2  0  0  0  0
 20 21  1  0  0  0  0
 20 22  1  0  0  0  0
 22 23  1  0  0  0  0
 22 24  1  0  0  0  0
 23 24  1  0  0  0  0
 25 26  2  0  0  0  0
 25 30  1  0  0  0  0
 26 27  1  0  0  0  0
 27 28  2  0  0  0  0
 28 29  1  0  0  0  0
 29 30  2  0  0  0  0
 29 34  1  0  0  0  0
 30 31  1  0  0  0  0
 31 32  2  0  0  0  0
 32 33  1  0  0  0  0
 32 39  1  0  0  0  0
 33 34  2  0  0  0  0
 33 35  1  0  0  0  0
 36 35  1  1  0  0  0
 36 37  1  0  0  0  0
 36 41  1  0  0  0  0
 37 38  2  0  0  0  0
 37 39  1  0  0  0  0
 39 40  2  0  0  0  0
 41 42  1  1  0  0  0
 41 43  1  0  0  0  0
 41 44  1  0  0  0  0
 43 44  1  0  0  0  0
 44 45  2  0  0  0  0
 46 47  2  0  0  0  0
 46 48  1  0  0  0  0
 48 49  2  0  0  0  0
 48 50  1  0  0  0  0
 50 51  2  0  0  0  0
M  END
$$$$