
 OpenBabel11262000503D

 54 62  0  0  1  0  0  0  0  0999 V2000
    3.1798    5.6800   -5.8457 O   0  0  0  0  0  0  0  0  0  0  0  0
    2.6855    4.4018   -5.7708 C   0  0  0  0  0  0  0  0  0  0  0  0
    2.5355    3.7345   -4.6188 C   0  0  0  0  0  0  0  0  0  0  0  0
    2.9170    4.3004   -3.4130 O   0  0  0  0  0  0  0  0  0  0  0  0
    2.1756    3.8572   -2.2746 C   0  0  2  0  0  0  0  0  0  0  0  0
    2.7857    4.3894   -1.0459 O   0  0  0  0  0  0  0  0  0  0  0  0
    2.8746    5.7743   -0.9321 C   0  0  0  0  0  0  0  0  0  0  0  0
    3.8112    6.3503   -0.1477 C   0  0  0  0  0  0  0  0  0  0  0  0
    3.9183    7.7506    0.0153 O   0  0  0  0  0  0  0  0  0  0  0  0
    2.9726    8.6052   -0.6118 C   0  0  0  0  0  0  0  0  0  0  0  0
    1.9716    8.0781   -1.3465 C   0  0  0  0  0  0  0  0  0  0  0  0
    1.8433    6.6142   -1.6336 C   0  0  0  0  0  0  0  0  0  0  0  0
    0.9043    8.9230   -1.9943 C   0  0  3  0  0  0  0  0  0  0  0  0
   -0.3402    8.5688   -1.4217 O   0  0  0  0  0  0  0  0  0  0  0  0
   -1.3949    9.3367   -1.7842 C   0  0  0  0  0  0  0  0  0  0  0  0
   -2.5787    8.9178   -1.5573 N   0  0  0  0  0  0  0  0  0  0  0  0
   -1.1724   10.5310   -2.3753 O   0  0  0  0  0  0  0  0  0  0  0  0
    0.0343   11.1252   -2.3338 C   0  0  0  0  0  0  0  0  0  0  0  0
    0.2817   12.2196   -2.8147 O   0  0  0  0  0  0  0  0  0  0  0  0
    1.1089   10.3458   -1.7238 C   0  0  0  0  0  0  0  0  0  0  0  0
    2.1481   10.8531   -1.0310 C   0  0  0  0  0  0  0  0  0  0  0  0
    3.0855    9.9876   -0.4607 O   0  3  0  0  0  0  0  0  0  0  0  0
    2.3440   12.3038   -0.7679 C   0  0  0  0  0  0  0  0  0  0  0  0
    1.8121   12.9099    0.4167 O   0  0  0  0  0  0  0  0  0  0  0  0
    3.2346   12.7315    0.2789 O   0  0  0  0  0  0  0  0  0  0  0  0
    4.7340    5.5061    0.6723 C   0  0  0  0  0  0  0  0  0  0  0  0
    4.3329    5.1556    1.9700 C   0  0  0  0  0  0  0  0  0  0  0  0
    5.1134    4.3786    2.7271 N   0  3  0  0  0  0  0  0  0  0  0  0
    4.7269    4.0726    3.9836 F   0  0  0  0  0  0  0  0  0  0  0  0
    6.2675    3.9153    2.2951 N   0  0  0  0  0  0  0  0  0  0  0  0
    6.6776    4.2234    1.0508 C   0  0  0  0  0  0  0  0  0  0  0  0
    5.9294    5.0254    0.1964 N   0  3  0  0  0  0  0  0  0  0  0  0
    6.4129    5.3052   -1.0477 C   0  0  0  0  0  0  0  0  0  0  0  0
    7.6662    4.8514   -1.4598 C   0  0  0  0  0  0  0  0  0  0  0  0
    8.1799    5.2580   -2.7554 C   0  0  0  0  0  0  0  0  0  0  0  0
    7.5824    6.1406   -3.3476 O   0  0  0  0  0  0  0  0  0  0  0  0
    9.4524    4.6058   -3.2476 C   0  0  0  0  0  0  0  0  0  0  0  0
    9.9921    5.0312   -4.2544 O   0  0  0  0  0  0  0  0  0  0  0  0
    9.9259    3.4245   -2.4177 C   0  0  1  0  0  0  0  0  0  0  0  0
    9.6436    3.5512   -1.0015 O   0  0  0  0  0  0  0  0  0  0  0  0
    8.4335    4.0619   -0.6414 C   0  0  0  0  0  0  0  0  0  0  0  0
    7.9232    3.7568    0.6132 C   0  0  0  0  0  0  0  0  0  0  0  0
    8.6458    2.9914    1.4439 F   0  0  0  0  0  0  0  0  0  0  0  0
    9.4400    2.1151   -2.9948 C   0  0  1  0  0  0  0  0  0  0  0  0
    9.8582    1.8102   -4.3319 O   0  0  0  0  0  0  0  0  0  0  0  0
    9.3747    1.0087   -2.0967 O   0  0  0  0  0  0  0  0  0  0  0  0
    8.1948    1.4733   -2.5586 C   0  0  0  0  0  0  0  0  0  0  0  0
    7.2483    1.9431   -1.9636 O   0  0  0  0  0  0  0  0  0  0  0  0
    2.1501    2.3242   -2.1876 C   0  0  3  0  0  0  0  0  0  0  0  0
    1.4674    1.7378   -3.4171 C   0  0  3  0  0  0  0  0  0  0  0  0
    1.9608    2.3512   -4.7047 C   0  0  0  0  0  0  0  0  0  0  0  0
    1.8263    1.7869   -5.7874 O   0  0  0  0  0  0  0  0  0  0  0  0
    1.6588    0.3864   -3.3708 F   0  0  0  0  0  0  0  0  0  0  0  0
    3.4897    1.8138   -2.0326 O   0  0  0  0  0  0  0  0  0  0  0  0
  1  2  1  0  0  0  0
  2  3  2  0  0  0  0
  3  4  1  0  0  0  0
  3 51  1  0  0  0  0
  4  5  1  0  0  0  0
  5  6  1  1  0  0  0
  5 49  1  0  0  0  0
  6  7  1  0  0  0  0
  7  8  2  0  0  0  0
  7 12  1  0  0  0  0
  8  9  1  0  0  0  0
  8 26  1  0  0  0  0
  9 10  1  0  0  0  0
 10 11  2  0  0  0  0
 10 22  1  0  0  0  0
 11 12  1  0  0  0  0
 11 13  1  0  0  0  0
 13 14  1  0  0  0  0
 13 20  1  0  0  0  0
 14 15  1  0  0  0  0
 15 16  2  0  0  0  0
 15 17  1  0  0  0  0
 17 18  1  0  0  0  0
 18 19  2  0  0  0  0
 18 20  1  0  0  0  0
 20 21  2  0  0  0  0
 21 22  1  0  0  0  0
 21 23  1  0  0  0  0
 23 24  1  0  0  0  0
 23 25  1  0  0  0  0
 24 25  1  0  0  0  0
 26 27  2  0  0  0  0
 26 32  1  0  0  0  0
 27 28  1  0  0  0  0
 28 29  1  0  0  0  0
 28 30  2  0  0  0  0
 30 31  1  0  0  0  0
 31 32  2  0  0  0  0
 31 42  1  0  0  0  0
 32 33  1  0  0  0  0
 33 34  2  0  0  0  0
 34 35  1  0  0  0  0
 34 41  1  0  0  0  0
 35 36  2  0  0  0  0
 35 37  1  0  0  0  0
 37 38  2  0  0  0  0
 39 37  1  6  0  0  0
 39 40  1  0  0  0  0
 39 44  1  0  0  0  0
 40 41  1  0  0  0  0
 41 42  2  0  0  0  0
 42 43  1  0  0  0  0
 44 45  1  6  0  0  0
 44 46  1  0  0  0  0
 44 47  1  0  0  0  0
 46 47  1  0  0  0  0
 47 48  2  0  0  0  0
 49 50  1  0  0  0  0
 49 54  1  0  0  0  0
 50 51  1  0  0  0  0
 50 53  1  0  0  0  0
 51 52  2  0  0  0  0
M  CHG  3  22   1  28   1  32   1
M  END
$$$$