
 OpenBabel11272001403D

 54 62  0  0  1  0  0  0  0  0999 V2000
   -1.5398   -2.2406   -4.3093 F   0  0  0  0  0  0  0  0  0  0  0  0
   -1.1366   -1.2576   -3.4807 C   0  0  0  0  0  0  0  0  0  0  0  0
   -0.1981   -1.4762   -2.5585 C   0  0  0  0  0  0  0  0  0  0  0  0
    0.3476   -2.7390   -2.4191 O   0  0  0  0  0  0  0  0  0  0  0  0
    1.6786   -2.7733   -1.9279 C   0  0  2  0  0  0  0  0  0  0  0  0
    2.1080   -4.1363   -1.7724 O   0  0  0  0  0  0  0  0  0  0  0  0
    2.1510   -4.9404   -2.9020 C   0  0  0  0  0  0  0  0  0  0  0  0
    1.9852   -6.2805   -2.8138 C   0  0  0  0  0  0  0  0  0  0  0  0
    2.0385   -7.1038   -3.9477 O   0  0  0  0  0  0  0  0  0  0  0  0
    2.3596   -6.5683   -5.1973 C   0  0  0  0  0  0  0  0  0  0  0  0
    2.6356   -5.2602   -5.3384 C   0  0  0  0  0  0  0  0  0  0  0  0
    2.4943   -4.2874   -4.2121 C   0  0  0  0  0  0  0  0  0  0  0  0
    3.1090   -4.6775   -6.6380 C   0  0  3  0  0  0  0  0  0  0  0  0
    4.4532   -4.2778   -6.4337 O   0  0  0  0  0  0  0  0  0  0  0  0
    5.1506   -3.8037   -7.5007 C   0  0  0  0  0  0  0  0  0  0  0  0
    6.2072   -3.2133   -7.3524 O   0  0  0  0  0  0  0  0  0  0  0  0
    4.6036   -4.0327   -8.7179 O   0  0  0  0  0  0  0  0  0  0  0  0
    3.6261   -5.0363   -8.9660 C   0  0  3  0  0  0  0  0  0  0  0  0
    3.1353   -5.6821   -7.7212 C   0  0  0  0  0  0  0  0  0  0  0  0
    2.7776   -6.9736   -7.5407 C   0  0  0  0  0  0  0  0  0  0  0  0
    2.4047   -7.4236   -6.2762 O   0  3  0  0  0  0  0  0  0  0  0  0
    2.7746   -7.9880   -8.6113 C   0  0  3  0  0  0  0  0  0  0  0  0
    2.3681   -9.3057   -8.2460 N   0  0  0  0  0  0  0  0  0  0  0  0
    3.5872   -9.1329   -8.4185 N   0  0  0  0  0  0  0  0  0  0  0  0
    2.4846   -4.4333   -9.5375 O   0  0  0  0  0  0  0  0  0  0  0  0
    1.7686   -6.9871   -1.5071 C   0  0  0  0  0  0  0  0  0  0  0  0
    2.4094   -6.4889   -0.3674 C   0  0  0  0  0  0  0  0  0  0  0  0
    2.2431   -7.0444    0.8330 N   0  3  0  0  0  0  0  0  0  0  0  0
    2.8743   -6.5040    1.8932 F   0  0  0  0  0  0  0  0  0  0  0  0
    1.4881   -8.1042    1.0202 N   0  0  0  0  0  0  0  0  0  0  0  0
    0.8474   -8.6504   -0.0155 C   0  0  0  0  0  0  0  0  0  0  0  0
    0.9618   -8.1393   -1.3270 C   0  0  0  0  0  0  0  0  0  0  0  0
    0.2429   -8.8037   -2.3512 C   0  0  0  0  0  0  0  0  0  0  0  0
   -0.5800   -9.9051   -2.0789 C   0  0  0  0  0  0  0  0  0  0  0  0
   -1.3147  -10.5520   -3.1662 C   0  0  0  0  0  0  0  0  0  0  0  0
   -1.0972  -10.2307   -4.3252 O   0  0  0  0  0  0  0  0  0  0  0  0
   -2.3071  -11.6249   -2.7765 C   0  0  0  0  0  0  0  0  0  0  0  0
   -2.7414  -12.3902   -3.6231 O   0  0  0  0  0  0  0  0  0  0  0  0
   -2.6897  -11.6276   -1.3105 C   0  0  1  0  0  0  0  0  0  0  0  0
   -1.5810  -11.3660   -0.4269 O   0  0  0  0  0  0  0  0  0  0  0  0
   -0.7222  -10.3690   -0.7884 C   0  0  0  0  0  0  0  0  0  0  0  0
    0.0206   -9.7510    0.2180 C   0  0  0  0  0  0  0  0  0  0  0  0
   -0.0959  -10.2062    1.4756 F   0  0  0  0  0  0  0  0  0  0  0  0
   -3.8911  -10.7509   -1.0400 C   0  0  1  0  0  0  0  0  0  0  0  0
   -5.1053  -11.1131   -1.7211 O   0  0  0  0  0  0  0  0  0  0  0  0
   -4.0623  -10.3160    0.3176 O   0  0  0  0  0  0  0  0  0  0  0  0
   -3.8094   -9.3708   -0.5966 C   0  0  0  0  0  0  0  0  0  0  0  0
   -2.9168   -8.5414   -0.6836 O   0  0  0  0  0  0  0  0  0  0  0  0
    1.7572   -2.0899   -0.5795 C   0  0  0  0  0  0  0  0  0  0  0  0
    2.1528   -2.6032    0.4563 O   0  0  0  0  0  0  0  0  0  0  0  0
    1.2831   -0.6635   -0.6729 C   0  0  0  0  0  0  0  0  0  0  0  0
    1.8436    0.2014   -0.0247 O   0  0  0  0  0  0  0  0  0  0  0  0
    0.2002   -0.3327   -1.6865 C   0  0  0  0  0  0  0  0  0  0  0  0
   -0.2665    0.7867   -1.7901 O   0  0  0  0  0  0  0  0  0  0  0  0
  1  2  1  0  0  0  0
  2  3  2  0  0  0  0
  3  4  1  0  0  0  0
  3 53  1  0  0  0  0
  4  5  1  0  0  0  0
  5  6  1  1  0  0  0
  5 49  1  0  0  0  0
  6  7  1  0  0  0  0
  7  8  2  0  0  0  0
  7 12  1  0  0  0  0
  8  9  1  0  0  0  0
  8 26  1  0  0  0  0
  9 10  1  0  0  0  0
 10 11  2  0  0  0  0
 10 21  1  0  0  0  0
 11 12  1  0  0  0  0
 11 13  1  0  0  0  0
 13 14  1  0  0  0  0
 13 19  1  0  0  0  0
 14 15  1  0  0  0  0
 15 16  2  0  0  0  0
 15 17  1  0  0  0  0
 17 18  1  0  0  0  0
 18 19  1  0  0  0  0
 18 25  1  0  0  0  0
 19 20  2  0  0  0  0
 20 21  1  0  0  0  0
 20 22  1  0  0  0  0
 22 23  1  0  0  0  0
 22 24  1  0  0  0  0
 23 24  2  0  0  0  0
 26 27  2  0  0  0  0
 26 32  1  0  0  0  0
 27 28  1  0  0  0  0
 28 29  1  0  0  0  0
 28 30  2  0  0  0  0
 30 31  1  0  0  0  0
 31 32  2  0  0  0  0
 31 42  1  0  0  0  0
 32 33  1  0  0  0  0
 33 34  2  0  0  0  0
 34 35  1  0  0  0  0
 34 41  1  0  0  0  0
 35 36  2  0  0  0  0
 35 37  1  0  0  0  0
 37 38  2  0  0  0  0
 39 37  1  6  0  0  0
 39 40  1  0  0  0  0
 39 44  1  0  0  0  0
 40 41  1  0  0  0  0
 41 42  2  0  0  0  0
 42 43  1  0  0  0  0
 44 45  1  6  0  0  0
 44 46  1  0  0  0  0
 44 47  1  0  0  0  0
 46 47  1  0  0  0  0
 47 48  2  0  0  0  0
 49 50  2  0  0  0  0
 49 51  1  0  0  0  0
 51 52  2  0  0  0  0
 51 53  1  0  0  0  0
 53 54  2  0  0  0  0
M  CHG  2  21   1  28   1
M  END
$$$$